
#======================================================================
# CRYSTAL DATA
#----------------------------------------------------------------------
data_VESTA_phase_1

_chemical_name_common                  ' struc4'
_cell_length_a                         8.6197900772
_cell_length_b                         8.8517599106
_cell_length_c                         12.5012798309
_cell_angle_alpha                      90.000000
_cell_angle_beta                       90.000000
_cell_angle_gamma                      90.000000
_cell_volume                           953.851554537
_space_group_name_H-M_alt              'P 1'
_space_group_IT_number                 1

loop_
_space_group_symop_operation_xyz
   'x, y, z'

loop_
   _atom_site_label
   _atom_site_occupancy
   _atom_site_fract_x
   _atom_site_fract_y
   _atom_site_fract_z
   _atom_site_adp_type
   _atom_site_U_iso_or_equiv
   _atom_site_type_symbol
Pb 1.0 0.97304939     0.03897175     0.98825099     Uiso  ? Pb
Pb 1.0 0.03235563     0.00703121     0.52113776     Uiso  ? Pb
Pb 1.0 0.5169158     0.49412712     0.49403694     Uiso  ? Pb
Pb 1.0 0.50551859     0.48235506     0.00298058     Uiso  ? Pb
Cs 1.0 0.9932314     0.43578653     0.25263118     Uiso  ? Cs
Cs 1.0 0.00775178     0.6600339     0.7543671     Uiso  ? Cs
Cs 1.0 0.48339223     0.97217331     0.78815058     Uiso  ? Cs
Cs 1.0 0.51346265     0.93705685     0.26948989     Uiso  ? Cs
I 1.0 0.1923656     0.3067916     0.49746776     Uiso  ? I
I 1.0 0.85857113     0.67734352     0.48129556     Uiso  ? I
I 1.0 0.69950278     0.20129583     0.44484475     Uiso  ? I
I 1.0 0.31124019     0.78116565     0.55983735     Uiso  ? I
I 1.0 0.83425296     0.6582719     0.02135956     Uiso  ? I
I 1.0 0.19611111     0.34368921     0.90823021     Uiso  ? I
I 1.0 0.25479907     0.815818     0.99477353     Uiso  ? I
I 1.0 0.62261945     0.18608165     0.052404     Uiso  ? I
I 1.0 0.93829368     0.08126025     0.75147667     Uiso  ? I
I 1.0 0.05553325     0.9859691     0.24835485     Uiso  ? I
I 1.0 0.43293886     0.53395331     0.23729691     Uiso  ? I
I 1.0 0.56058178     0.38635857     0.72450626     Uiso  ? I
