
#======================================================================
# CRYSTAL DATA
#----------------------------------------------------------------------
data_VESTA_phase_1

_chemical_name_common                  ' struc4'
_cell_length_a                         8.6197900772
_cell_length_b                         8.8517599106
_cell_length_c                         12.5012798309
_cell_angle_alpha                      90.000000
_cell_angle_beta                       90.000000
_cell_angle_gamma                      90.000000
_cell_volume                           953.851554537
_space_group_name_H-M_alt              'P 1'
_space_group_IT_number                 1

loop_
_space_group_symop_operation_xyz
   'x, y, z'

loop_
   _atom_site_label
   _atom_site_occupancy
   _atom_site_fract_x
   _atom_site_fract_y
   _atom_site_fract_z
   _atom_site_adp_type
   _atom_site_U_iso_or_equiv
   _atom_site_type_symbol
Pb 1.0 0.97323609     0.03947555     0.9882091     Uiso  ? Pb
Pb 1.0 0.03258209     0.00703808     0.52096562     Uiso  ? Pb
Pb 1.0 0.5172773     0.49375957     0.49411879     Uiso  ? Pb
Pb 1.0 0.50483975     0.48231424     0.00272835     Uiso  ? Pb
Cs 1.0 0.9929528     0.43533376     0.25235217     Uiso  ? Cs
Cs 1.0 0.00770426     0.66011203     0.75460348     Uiso  ? Cs
Cs 1.0 0.48310673     0.9720374     0.78915838     Uiso  ? Cs
Cs 1.0 0.51283661     0.93620118     0.26987761     Uiso  ? Cs
I 1.0 0.19291673     0.30749928     0.49750946     Uiso  ? I
I 1.0 0.8580038     0.67703478     0.48114729     Uiso  ? I
I 1.0 0.69987228     0.20103645     0.44446282     Uiso  ? I
I 1.0 0.31117886     0.78130647     0.55963675     Uiso  ? I
I 1.0 0.83436221     0.65895079     0.02127191     Uiso  ? I
I 1.0 0.19577627     0.34338889     0.90831583     Uiso  ? I
I 1.0 0.25520176     0.81639166     0.99453499     Uiso  ? I
I 1.0 0.62188126     0.18517002     0.05267355     Uiso  ? I
I 1.0 0.93860568     0.08205073     0.7516437     Uiso  ? I
I 1.0 0.05545536     0.98609986     0.24845347     Uiso  ? I
I 1.0 0.43341955     0.53449714     0.2370371     Uiso  ? I
I 1.0 0.56127578     0.38583626     0.72437139     Uiso  ? I
