
#======================================================================
# CRYSTAL DATA
#----------------------------------------------------------------------
data_VESTA_phase_1

_chemical_name_common                  ' struc4'
_cell_length_a                         8.6197900772
_cell_length_b                         8.8517599106
_cell_length_c                         12.5012798309
_cell_angle_alpha                      90.000000
_cell_angle_beta                       90.000000
_cell_angle_gamma                      90.000000
_cell_volume                           953.851554537
_space_group_name_H-M_alt              'P 1'
_space_group_IT_number                 1

loop_
_space_group_symop_operation_xyz
   'x, y, z'

loop_
   _atom_site_label
   _atom_site_occupancy
   _atom_site_fract_x
   _atom_site_fract_y
   _atom_site_fract_z
   _atom_site_adp_type
   _atom_site_U_iso_or_equiv
   _atom_site_type_symbol
Pb 1.0 0.9739265     0.04097054     0.98824366     Uiso  ? Pb
Pb 1.0 0.03315945     0.0070233     0.52025885     Uiso  ? Pb
Pb 1.0 0.51845081     0.4925867     0.49438273     Uiso  ? Pb
Pb 1.0 0.50272967     0.48242785     0.0018413     Uiso  ? Pb
Cs 1.0 0.99209313     0.4339479     0.25147014     Uiso  ? Cs
Cs 1.0 0.00755106     0.66013381     0.7553243     Uiso  ? Cs
Cs 1.0 0.48238141     0.97178054     0.79214384     Uiso  ? Cs
Cs 1.0 0.51089256     0.93357995     0.27106345     Uiso  ? Cs
I 1.0 0.19471005     0.30974828     0.49768276     Uiso  ? I
I 1.0 0.85606896     0.67613311     0.48067695     Uiso  ? I
I 1.0 0.70112526     0.20019813     0.44331956     Uiso  ? I
I 1.0 0.31102729     0.78185576     0.55899912     Uiso  ? I
I 1.0 0.83453302     0.66117968     0.02100387     Uiso  ? I
I 1.0 0.19462207     0.34227298     0.90873901     Uiso  ? I
I 1.0 0.25645546     0.81809034     0.99380314     Uiso  ? I
I 1.0 0.61990071     0.18210567     0.05348733     Uiso  ? I
I 1.0 0.93937255     0.08438096     0.75205714     Uiso  ? I
I 1.0 0.05517928     0.9865656     0.24880724     Uiso  ? I
I 1.0 0.43481302     0.53605811     0.2363245     Uiso  ? I
I 1.0 0.56345734     0.38442902     0.724073     Uiso  ? I
