
#======================================================================
# CRYSTAL DATA
#----------------------------------------------------------------------
data_VESTA_phase_1

_chemical_name_common                  ' struc4'
_cell_length_a                         8.6197900772
_cell_length_b                         8.8517599106
_cell_length_c                         12.5012798309
_cell_angle_alpha                      90.000000
_cell_angle_beta                       90.000000
_cell_angle_gamma                      90.000000
_cell_volume                           953.851554537
_space_group_name_H-M_alt              'P 1'
_space_group_IT_number                 1

loop_
_space_group_symop_operation_xyz
   'x, y, z'

loop_
   _atom_site_label
   _atom_site_occupancy
   _atom_site_fract_x
   _atom_site_fract_y
   _atom_site_fract_z
   _atom_site_adp_type
   _atom_site_U_iso_or_equiv
   _atom_site_type_symbol
Pb 1.0 0.97448852     0.04195252     0.98840044     Uiso  ? Pb
Pb 1.0 0.03346086     0.00699228     0.5196311     Uiso  ? Pb
Pb 1.0 0.51930671     0.49174729     0.49457249     Uiso  ? Pb
Pb 1.0 0.50127548     0.48267969     0.00114575     Uiso  ? Pb
Cs 1.0 0.99149951     0.4330012     0.25084559     Uiso  ? Cs
Cs 1.0 0.00743966     0.65997612     0.75580877     Uiso  ? Cs
Cs 1.0 0.48201925     0.97173993     0.79408515     Uiso  ? Cs
Cs 1.0 0.50954326     0.93179865     0.27187517     Uiso  ? Cs
I 1.0 0.19600526     0.31133308     0.4978381     Uiso  ? I
I 1.0 0.85459522     0.67556139     0.48034483     Uiso  ? I
I 1.0 0.70208077     0.19959221     0.4425581     Uiso  ? I
I 1.0 0.31095923     0.78232512     0.55854877     Uiso  ? I
I 1.0 0.83450691     0.6628237     0.02082161     Uiso  ? I
I 1.0 0.19373579     0.34136038     0.909161     Uiso  ? I
I 1.0 0.25731682     0.81919158     0.9933157     Uiso  ? I
I 1.0 0.61876333     0.17982544     0.05402964     Uiso  ? I
I 1.0 0.93974336     0.08589234     0.75224948     Uiso  ? I
I 1.0 0.05496299     0.98693541     0.24909331     Uiso  ? I
I 1.0 0.43569855     0.53702667     0.23590321     Uiso  ? I
I 1.0 0.56499454     0.38362152     0.72396824     Uiso  ? I
