
#======================================================================
# CRYSTAL DATA
#----------------------------------------------------------------------
data_VESTA_phase_1

_chemical_name_common                  ' struc4'
_cell_length_a                         8.6197900772
_cell_length_b                         8.8517599106
_cell_length_c                         12.5012798309
_cell_angle_alpha                      90.000000
_cell_angle_beta                       90.000000
_cell_angle_gamma                      90.000000
_cell_volume                           953.851554537
_space_group_name_H-M_alt              'P 1'
_space_group_IT_number                 1

loop_
_space_group_symop_operation_xyz
   'x, y, z'

loop_
   _atom_site_label
   _atom_site_occupancy
   _atom_site_fract_x
   _atom_site_fract_y
   _atom_site_fract_z
   _atom_site_adp_type
   _atom_site_U_iso_or_equiv
   _atom_site_type_symbol
Pb 1.0 0.97740089     0.04572795     0.990058     Uiso  ? Pb
Pb 1.0 0.03402289     0.00684274     0.51593015     Uiso  ? Pb
Pb 1.0 0.52328479     0.48796704     0.49541035     Uiso  ? Pb
Pb 1.0 0.49532604     0.48470681     0.99764091     Uiso  ? Pb
Cs 1.0 0.98897828     0.4290748     0.2480941     Uiso  ? Cs
Cs 1.0 0.00692329     0.658055     0.75766397     Uiso  ? Cs
Cs 1.0 0.48179318     0.97273494     0.80113155     Uiso  ? Cs
Cs 1.0 0.50376847     0.92464467     0.27532871     Uiso  ? Cs
I 1.0 0.20163371     0.31798807     0.49877102     Uiso  ? I
I 1.0 0.8474848     0.67369673     0.47890975     Uiso  ? I
I 1.0 0.70680997     0.19685602     0.43951164     Uiso  ? I
I 1.0 0.31105085     0.7849432     0.55662683     Uiso  ? I
I 1.0 0.83313317     0.67062547     0.02008632     Uiso  ? I
I 1.0 0.18943666     0.33659278     0.91196837     Uiso  ? I
I 1.0 0.26071612     0.82304913     0.99164173     Uiso  ? I
I 1.0 0.61547415     0.16954214     0.0561022     Uiso  ? I
I 1.0 0.94010495     0.09140006     0.75223923     Uiso  ? I
I 1.0 0.05391419     0.98884011     0.25064499     Uiso  ? I
I 1.0 0.43885733     0.54004652     0.2345749     Uiso  ? I
I 1.0 0.57175834     0.38142472     0.72438837     Uiso  ? I
