
#======================================================================
# CRYSTAL DATA
#----------------------------------------------------------------------
data_VESTA_phase_1

_chemical_name_common                  ' struc4'
_cell_length_a                         8.6197900772
_cell_length_b                         8.8517599106
_cell_length_c                         12.5012798309
_cell_angle_alpha                      90.000000
_cell_angle_beta                       90.000000
_cell_angle_gamma                      90.000000
_cell_volume                           953.851554537
_space_group_name_H-M_alt              'P 1'
_space_group_IT_number                 1

loop_
_space_group_symop_operation_xyz
   'x, y, z'

loop_
   _atom_site_label
   _atom_site_occupancy
   _atom_site_fract_x
   _atom_site_fract_y
   _atom_site_fract_z
   _atom_site_adp_type
   _atom_site_U_iso_or_equiv
   _atom_site_type_symbol
Pb 1.0 0.97912534     0.04748129     0.9914401     Uiso  ? Pb
Pb 1.0 0.03393583     0.0068402     0.51343728     Uiso  ? Pb
Pb 1.0 0.52556035     0.48586706     0.49585275     Uiso  ? Pb
Pb 1.0 0.49242671     0.48609043     0.99554987     Uiso  ? Pb
Cs 1.0 0.98765417     0.42708388     0.24660271     Uiso  ? Cs
Cs 1.0 0.00663029     0.65638429     0.75846067     Uiso  ? Cs
Cs 1.0 0.48258775     0.97400103     0.80399719     Uiso  ? Cs
Cs 1.0 0.50070261     0.92124269     0.27720468     Uiso  ? Cs
I 1.0 0.20445675     0.32124279     0.49941186     Uiso  ? I
I 1.0 0.8434252     0.67315228     0.47815214     Uiso  ? I
I 1.0 0.7096494     0.19535219     0.43799916     Uiso  ? I
I 1.0 0.31137101     0.78662492     0.55564317     Uiso  ? I
I 1.0 0.83160802     0.67518617     0.01973291     Uiso  ? I
I 1.0 0.18699018     0.33373197     0.91403392     Uiso  ? I
I 1.0 0.26220668     0.82441872     0.99115053     Uiso  ? I
I 1.0 0.61448508     0.1642117     0.05701038     Uiso  ? I
I 1.0 0.93963989     0.09367006     0.75174921     Uiso  ? I
I 1.0 0.05333195     0.99000029     0.25164518     Uiso  ? I
I 1.0 0.44018261     0.54083504     0.23405501     Uiso  ? I
I 1.0 0.5754446     0.38096127     0.7251491     Uiso  ? I
