
#======================================================================
# CRYSTAL DATA
#----------------------------------------------------------------------
data_VESTA_phase_1

_chemical_name_common                  ' struc4'
_cell_length_a                         8.6197900772
_cell_length_b                         8.8517599106
_cell_length_c                         12.5012798309
_cell_angle_alpha                      90.000000
_cell_angle_beta                       90.000000
_cell_angle_gamma                      90.000000
_cell_volume                           953.851554537
_space_group_name_H-M_alt              'P 1'
_space_group_IT_number                 1

loop_
_space_group_symop_operation_xyz
   'x, y, z'

loop_
   _atom_site_label
   _atom_site_occupancy
   _atom_site_fract_x
   _atom_site_fract_y
   _atom_site_fract_z
   _atom_site_adp_type
   _atom_site_U_iso_or_equiv
   _atom_site_type_symbol
Pb 1.0 0.00267964     0.00569788     0.00393888     Uiso  ? Pb
Pb 1.0 0.99818367     0.99957246     0.49597459     Uiso  ? Pb
Pb 1.0 0.50438092     0.49950613     0.4997685     Uiso  ? Pb
Pb 1.0 0.49776754     0.50934971     0.99602444     Uiso  ? Pb
Cs 1.0 0.98719155     0.44736841     0.25202746     Uiso  ? Cs
Cs 1.0 0.0154422     0.56556928     0.75062299     Uiso  ? Cs
Cs 1.0 0.49185402     0.04496781     0.7482711     Uiso  ? Cs
Cs 1.0 0.51955711     0.94939131     0.25047029     Uiso  ? Cs
I 1.0 0.20380781     0.30497883     0.52482154     Uiso  ? I
I 1.0 0.80454835     0.69550524     0.47198779     Uiso  ? I
I 1.0 0.7033376     0.19836467     0.46983614     Uiso  ? I
I 1.0 0.30258529     0.79955983     0.53531729     Uiso  ? I
I 1.0 0.80909763     0.69709598     0.02931338     Uiso  ? I
I 1.0 0.18627443     0.29144058     0.96396462     Uiso  ? I
I 1.0 0.29992643     0.78810093     0.97513759     Uiso  ? I
I 1.0 0.69890067     0.1963749     0.03110115     Uiso  ? I
I 1.0 0.92530397     0.00730593     0.74878999     Uiso  ? I
I 1.0 0.05810512     0.00019919     0.25139923     Uiso  ? I
I 1.0 0.430218     0.50146673     0.24994431     Uiso  ? I
I 1.0 0.55826886     0.48890135     0.75393962     Uiso  ? I
