
#======================================================================
# CRYSTAL DATA
#----------------------------------------------------------------------
data_VESTA_phase_1

_chemical_name_common                  ' struc4'
_cell_length_a                         8.6197900772
_cell_length_b                         8.8517599106
_cell_length_c                         12.5012798309
_cell_angle_alpha                      90.000000
_cell_angle_beta                       90.000000
_cell_angle_gamma                      90.000000
_cell_volume                           953.851554537
_space_group_name_H-M_alt              'P 1'
_space_group_IT_number                 1

loop_
_space_group_symop_operation_xyz
   'x, y, z'

loop_
   _atom_site_label
   _atom_site_occupancy
   _atom_site_fract_x
   _atom_site_fract_y
   _atom_site_fract_z
   _atom_site_adp_type
   _atom_site_U_iso_or_equiv
   _atom_site_type_symbol
Pb 1.0 0.98565092     0.05256073     0.99957426     Uiso  ? Pb
Pb 1.0 0.03143826     0.00820152     0.50033255     Uiso  ? Pb
Pb 1.0 0.53607033     0.47627677     0.49761688     Uiso  ? Pb
Pb 1.0 0.48258012     0.49224335     0.98606072     Uiso  ? Pb
Cs 1.0 0.98203095     0.41974779     0.23992161     Uiso  ? Cs
Cs 1.0 0.00529859     0.64535113     0.75989013     Uiso  ? Cs
Cs 1.0 0.49369776     0.98497405     0.80849419     Uiso  ? Cs
Cs 1.0 0.48764991     0.91110321     0.28620932     Uiso  ? Cs
I 1.0 0.21230482     0.33093858     0.50298886     Uiso  ? I
I 1.0 0.82683094     0.67556802     0.47484912     Uiso  ? I
I 1.0 0.72311801     0.18908673     0.43202417     Uiso  ? I
I 1.0 0.31524822     0.79491359     0.55211533     Uiso  ? I
I 1.0 0.81874973     0.69749925     0.01856982     Uiso  ? I
I 1.0 0.17739934     0.32223296     0.9267654     Uiso  ? I
I 1.0 0.26522701     0.82315054     0.99312768     Uiso  ? I
I 1.0 0.61465388     0.14664642     0.05948939     Uiso  ? I
I 1.0 0.93400823     0.09734519     0.74738007     Uiso  ? I
I 1.0 0.05132915     0.99537139     0.2562042     Uiso  ? I
I 1.0 0.44377358     0.53602302     0.23184734     Uiso  ? I
I 1.0 0.59180671     0.38407226     0.73245987     Uiso  ? I
