
#======================================================================
# CRYSTAL DATA
#----------------------------------------------------------------------
data_VESTA_phase_1

_chemical_name_common                  ' struc4'
_cell_length_a                         8.6197900772
_cell_length_b                         8.8517599106
_cell_length_c                         12.5012798309
_cell_angle_alpha                      90.000000
_cell_angle_beta                       90.000000
_cell_angle_gamma                      90.000000
_cell_volume                           953.851554537
_space_group_name_H-M_alt              'P 1'
_space_group_IT_number                 1

loop_
_space_group_symop_operation_xyz
   'x, y, z'

loop_
   _atom_site_label
   _atom_site_occupancy
   _atom_site_fract_x
   _atom_site_fract_y
   _atom_site_fract_z
   _atom_site_adp_type
   _atom_site_U_iso_or_equiv
   _atom_site_type_symbol
Pb 1.0 0.98668486     0.05238179     0.00398976     Uiso  ? Pb
Pb 1.0 0.02949197     0.00980127     0.49405056     Uiso  ? Pb
Pb 1.0 0.5410079     0.47121539     0.49840714     Uiso  ? Pb
Pb 1.0 0.47973504     0.4951268     0.9817998     Uiso  ? Pb
Cs 1.0 0.97935059     0.4176248     0.23647972     Uiso  ? Cs
Cs 1.0 0.00468461     0.6380371     0.7591758     Uiso  ? Cs
Cs 1.0 0.50299796     0.99279244     0.8060302     Uiso  ? Cs
Cs 1.0 0.48162647     0.90942484     0.29096061     Uiso  ? Cs
I 1.0 0.21204294     0.33217549     0.50510437     Uiso  ? I
I 1.0 0.82103611     0.68060681     0.4730515     Uiso  ? I
I 1.0 0.72914597     0.18687931     0.42942879     Uiso  ? I
I 1.0 0.31873046     0.79890409     0.55119349     Uiso  ? I
I 1.0 0.80854916     0.70938449     0.01811679     Uiso  ? I
I 1.0 0.1747253     0.31951583     0.93476417     Uiso  ? I
I 1.0 0.26525045     0.81776357     0.99603428     Uiso  ? I
I 1.0 0.61751925     0.14291524     0.06014063     Uiso  ? I
I 1.0 0.93003515     0.09461145     0.74500891     Uiso  ? I
I 1.0 0.05127488     0.99764048     0.25700293     Uiso  ? I
I 1.0 0.4444722     0.52790353     0.23045567     Uiso  ? I
I 1.0 0.59975927     0.38923659     0.73819106     Uiso  ? I
