
#======================================================================
# CRYSTAL DATA
#----------------------------------------------------------------------
data_VESTA_phase_1

_chemical_name_common                  ' struc4'
_cell_length_a                         8.6197900772
_cell_length_b                         8.8517599106
_cell_length_c                         12.5012798309
_cell_angle_alpha                      90.000000
_cell_angle_beta                       90.000000
_cell_angle_gamma                      90.000000
_cell_volume                           953.851554537
_space_group_name_H-M_alt              'P 1'
_space_group_IT_number                 1

loop_
_space_group_symop_operation_xyz
   'x, y, z'

loop_
   _atom_site_label
   _atom_site_occupancy
   _atom_site_fract_x
   _atom_site_fract_y
   _atom_site_fract_z
   _atom_site_adp_type
   _atom_site_U_iso_or_equiv
   _atom_site_type_symbol
Pb 1.0 0.98657545     0.05197728     0.00488517     Uiso  ? Pb
Pb 1.0 0.02908679     0.01019836     0.49292987     Uiso  ? Pb
Pb 1.0 0.54195089     0.47012864     0.49857047     Uiso  ? Pb
Pb 1.0 0.4793509     0.4957437     0.98100053     Uiso  ? Pb
Cs 1.0 0.97879516     0.41739861     0.23574883     Uiso  ? Cs
Cs 1.0 0.00456575     0.63636695     0.7589006     Uiso  ? Cs
Cs 1.0 0.50513223     0.99450822     0.80515486     Uiso  ? Cs
Cs 1.0 0.48043741     0.90934549     0.2919283     Uiso  ? Cs
I 1.0 0.21156988     0.33209304     0.50557051     Uiso  ? I
I 1.0 0.82013679     0.68205944     0.47264481     Uiso  ? I
I 1.0 0.73019963     0.18657996     0.42891941     Uiso  ? I
I 1.0 0.31957908     0.79966609     0.5511158     Uiso  ? I
I 1.0 0.80607918     0.71187592     0.0180114     Uiso  ? I
I 1.0 0.17444042     0.3193893     0.93653318     Uiso  ? I
I 1.0 0.265239     0.81624354     0.99670529     Uiso  ? I
I 1.0 0.61839549     0.14266632     0.06025558     Uiso  ? I
I 1.0 0.92920846     0.09357742     0.74457508     Uiso  ? I
I 1.0 0.0514089     0.99802415     0.25684682     Uiso  ? I
I 1.0 0.44454694     0.52570277     0.23015912     Uiso  ? I
I 1.0 0.60138142     0.39071038     0.73951869     Uiso  ? I
