
#======================================================================
# CRYSTAL DATA
#----------------------------------------------------------------------
data_VESTA_phase_1

_chemical_name_common                  ' struc4'
_cell_length_a                         8.6197900772
_cell_length_b                         8.8517599106
_cell_length_c                         12.5012798309
_cell_angle_alpha                      90.000000
_cell_angle_beta                       90.000000
_cell_angle_gamma                      90.000000
_cell_volume                           953.851554537
_space_group_name_H-M_alt              'P 1'
_space_group_IT_number                 1

loop_
_space_group_symop_operation_xyz
   'x, y, z'

loop_
   _atom_site_label
   _atom_site_occupancy
   _atom_site_fract_x
   _atom_site_fract_y
   _atom_site_fract_z
   _atom_site_adp_type
   _atom_site_U_iso_or_equiv
   _atom_site_type_symbol
Pb 1.0 0.98633856     0.05143584     0.00573716     Uiso  ? Pb
Pb 1.0 0.02870614     0.01059907     0.49193846     Uiso  ? Pb
Pb 1.0 0.54282733     0.4690637     0.49873042     Uiso  ? Pb
Pb 1.0 0.4790553     0.49635743     0.98026351     Uiso  ? Pb
Cs 1.0 0.97825378     0.41726982     0.23503124     Uiso  ? Cs
Cs 1.0 0.00445462     0.63469558     0.75859103     Uiso  ? Cs
Cs 1.0 0.5072479     0.9961837     0.80418879     Uiso  ? Cs
Cs 1.0 0.47931042     0.90934945     0.29284597     Uiso  ? Cs
I 1.0 0.21096712     0.33189664     0.50603329     Uiso  ? I
I 1.0 0.81937382     0.68361527     0.4722351     Uiso  ? I
I 1.0 0.73112544     0.18636089     0.4284338     Uiso  ? I
I 1.0 0.3204416     0.80037263     0.55108985     Uiso  ? I
I 1.0 0.80355781     0.71429336     0.01789937     Uiso  ? I
I 1.0 0.17426329     0.31943557     0.93828279     Uiso  ? I
I 1.0 0.26524146     0.81463613     0.99736025     Uiso  ? I
I 1.0 0.61935081     0.14262015     0.06036349     Uiso  ? I
I 1.0 0.92842541     0.09240127     0.74418153     Uiso  ? I
I 1.0 0.05160114     0.99835641     0.25654979     Uiso  ? I
I 1.0 0.44459966     0.52339673     0.22988044     Uiso  ? I
I 1.0 0.60294548     0.3922962     0.74084219     Uiso  ? I
