
#======================================================================
# CRYSTAL DATA
#----------------------------------------------------------------------
data_VESTA_phase_1

_chemical_name_common                  ' struc4'
_cell_length_a                         8.6197900772
_cell_length_b                         8.8517599106
_cell_length_c                         12.5012798309
_cell_angle_alpha                      90.000000
_cell_angle_beta                       90.000000
_cell_angle_gamma                      90.000000
_cell_volume                           953.851554537
_space_group_name_H-M_alt              'P 1'
_space_group_IT_number                 1

loop_
_space_group_symop_operation_xyz
   'x, y, z'

loop_
   _atom_site_label
   _atom_site_occupancy
   _atom_site_fract_x
   _atom_site_fract_y
   _atom_site_fract_z
   _atom_site_adp_type
   _atom_site_U_iso_or_equiv
   _atom_site_type_symbol
Pb 1.0 0.98597604     0.05075933     0.00654061     Uiso  ? Pb
Pb 1.0 0.02835621     0.01099793     0.49108574     Uiso  ? Pb
Pb 1.0 0.54363394     0.46802517     0.49888752     Uiso  ? Pb
Pb 1.0 0.4788464     0.49697075     0.97959198     Uiso  ? Pb
Cs 1.0 0.97772644     0.41724066     0.23432663     Uiso  ? Cs
Cs 1.0 0.00435215     0.63302899     0.75825109     Uiso  ? Cs
Cs 1.0 0.50932868     0.99780764     0.80314512     Uiso  ? Cs
Cs 1.0 0.47824824     0.90942536     0.29370596     Uiso  ? Cs
I 1.0 0.21024723     0.33159632     0.50649182     Uiso  ? I
I 1.0 0.81874047     0.68526324     0.47182201     Uiso  ? I
I 1.0 0.73191519     0.186225     0.42797143     Uiso  ? I
I 1.0 0.32131152     0.80101942     0.55111769     Uiso  ? I
I 1.0 0.80099566     0.7166288     0.01777979     Uiso  ? I
I 1.0 0.17418609     0.31964725     0.9400058     Uiso  ? I
I 1.0 0.26526303     0.81295561     0.99798902     Uiso  ? I
I 1.0 0.62038143     0.14277087     0.06046577     Uiso  ? I
I 1.0 0.92769522     0.09109078     0.74382853     Uiso  ? I
I 1.0 0.05185214     0.9986361     0.25610946     Uiso  ? I
I 1.0 0.44463378     0.52100095     0.22962672     Uiso  ? I
I 1.0 0.60445143     0.39399018     0.74215048     Uiso  ? I
