
#======================================================================
# CRYSTAL DATA
#----------------------------------------------------------------------
data_VESTA_phase_1

_chemical_name_common                  ' struc4'
_cell_length_a                         8.6197900772
_cell_length_b                         8.8517599106
_cell_length_c                         12.5012798309
_cell_angle_alpha                      90.000000
_cell_angle_beta                       90.000000
_cell_angle_gamma                      90.000000
_cell_volume                           953.851554537
_space_group_name_H-M_alt              'P 1'
_space_group_IT_number                 1

loop_
_space_group_symop_operation_xyz
   'x, y, z'

loop_
   _atom_site_label
   _atom_site_occupancy
   _atom_site_fract_x
   _atom_site_fract_y
   _atom_site_fract_z
   _atom_site_adp_type
   _atom_site_U_iso_or_equiv
   _atom_site_type_symbol
Pb 1.0 0.98378381     0.04740188     0.00890263     Uiso  ? Pb
Pb 1.0 0.0274445     0.01230741     0.48925648     Uiso  ? Pb
Pb 1.0 0.54588251     0.46467347     0.49941716     Uiso  ? Pb
Pb 1.0 0.47875516     0.49915459     0.97779188     Uiso  ? Pb
Cs 1.0 0.97598826     0.41793785     0.23195154     Uiso  ? Cs
Cs 1.0 0.00409301     0.62728735     0.75686906     Uiso  ? Cs
Cs 1.0 0.51612361     0.00295527     0.7990674     Uiso  ? Cs
Cs 1.0 0.4750752     0.91010431     0.29616484     Uiso  ? Cs
I 1.0 0.20701965     0.32988699     0.50805584     Uiso  ? I
I 1.0 0.81739961     0.69155443     0.47035601     Uiso  ? I
I 1.0 0.73353524     0.18641199     0.42652301     Uiso  ? I
I 1.0 0.32432641     0.80278475     0.55165578     Uiso  ? I
I 1.0 0.79186709     0.72408031     0.01728135     Uiso  ? I
I 1.0 0.1745185     0.32151311     0.94576958     Uiso  ? I
I 1.0 0.26554743     0.8066876     0.99987143     Uiso  ? I
I 1.0 0.62452185     0.14474167     0.06079018     Uiso  ? I
I 1.0 0.9256814     0.08557641     0.74289521     Uiso  ? I
I 1.0 0.05318377     0.99920498     0.25350883     Uiso  ? I
I 1.0 0.4446488     0.51214303     0.22903792     Uiso  ? I
I 1.0 0.60926769     0.40067075     0.74644783     Uiso  ? I
