
#======================================================================
# CRYSTAL DATA
#----------------------------------------------------------------------
data_VESTA_phase_1

_chemical_name_common                  ' struc4'
_cell_length_a                         8.6197900772
_cell_length_b                         8.8517599106
_cell_length_c                         12.5012798309
_cell_angle_alpha                      90.000000
_cell_angle_beta                       90.000000
_cell_angle_gamma                      90.000000
_cell_volume                           953.851554537
_space_group_name_H-M_alt              'P 1'
_space_group_IT_number                 1

loop_
_space_group_symop_operation_xyz
   'x, y, z'

loop_
   _atom_site_label
   _atom_site_occupancy
   _atom_site_fract_x
   _atom_site_fract_y
   _atom_site_fract_z
   _atom_site_adp_type
   _atom_site_U_iso_or_equiv
   _atom_site_type_symbol
Pb 1.0 0.98336441     0.04680901     0.00917555     Uiso  ? Pb
Pb 1.0 0.02736037     0.01247576     0.48914209     Uiso  ? Pb
Pb 1.0 0.54612937     0.46423973     0.49949004     Uiso  ? Pb
Pb 1.0 0.47881732     0.49947496     0.97760776     Uiso  ? Pb
Cs 1.0 0.97575254     0.41813831     0.23162229     Uiso  ? Cs
Cs 1.0 0.00407109     0.62648501     0.75665314     Uiso  ? Cs
Cs 1.0 0.51700907     0.00361102     0.79845123     Uiso  ? Cs
Cs 1.0 0.47469443     0.91023717     0.29643699     Uiso  ? Cs
I 1.0 0.20649455     0.32957857     0.5082738     Uiso  ? I
I 1.0 0.8173     0.6924941     0.47014551     Uiso  ? I
I 1.0 0.73361992     0.18652082     0.4263359     Uiso  ? I
I 1.0 0.32474378     0.80297277     0.55178971     Uiso  ? I
I 1.0 0.79056066     0.72504551     0.01719784     Uiso  ? I
I 1.0 0.17461922     0.32189614     0.94655492     Uiso  ? I
I 1.0 0.26561805     0.80576256     9.014e-05     Uiso  ? I
I 1.0 0.62517381     0.14519322     0.06083187     Uiso  ? I
I 1.0 0.92547506     0.08468692     0.74279586     Uiso  ? I
I 1.0 0.0534281     0.9992364     0.25302023     Uiso  ? I
I 1.0 0.44464192     0.51084276     0.22900281     Uiso  ? I
I 1.0 0.60990125     0.40170893     0.74700835     Uiso  ? I
