
#======================================================================
# CRYSTAL DATA
#----------------------------------------------------------------------
data_VESTA_phase_1

_chemical_name_common                  ' struc4'
_cell_length_a                         8.6197900772
_cell_length_b                         8.8517599106
_cell_length_c                         12.5012798309
_cell_angle_alpha                      90.000000
_cell_angle_beta                       90.000000
_cell_angle_gamma                      90.000000
_cell_volume                           953.851554537
_space_group_name_H-M_alt              'P 1'
_space_group_IT_number                 1

loop_
_space_group_symop_operation_xyz
   'x, y, z'

loop_
   _atom_site_label
   _atom_site_occupancy
   _atom_site_fract_x
   _atom_site_fract_y
   _atom_site_fract_z
   _atom_site_adp_type
   _atom_site_U_iso_or_equiv
   _atom_site_type_symbol
Pb 1.0 0.00333513     0.00760538     0.00520749     Uiso  ? Pb
Pb 1.0 0.99769814     0.99944089     0.49475815     Uiso  ? Pb
Pb 1.0 0.50582892     0.49936093     0.49964536     Uiso  ? Pb
Pb 1.0 0.49718487     0.51232955     0.9947923     Uiso  ? Pb
Cs 1.0 0.98849847     0.44806969     0.25271281     Uiso  ? Cs
Cs 1.0 0.01505096     0.56947729     0.75081288     Uiso  ? Cs
Cs 1.0 0.49475284     0.0414786     0.74773493     Uiso  ? Cs
Cs 1.0 0.52060473     0.95078981     0.25064943     Uiso  ? Cs
I 1.0 0.20577128     0.3068355     0.52285124     Uiso  ? I
I 1.0 0.80551892     0.69372873     0.47284884     Uiso  ? I
I 1.0 0.70522256     0.1975853     0.46988256     Uiso  ? I
I 1.0 0.30267755     0.79965515     0.5370558     Uiso  ? I
I 1.0 0.81116444     0.69545326     0.02891006     Uiso  ? I
I 1.0 0.182881     0.28937939     0.96190616     Uiso  ? I
I 1.0 0.29872613     0.78467488     0.97706271     Uiso  ? I
I 1.0 0.6993038     0.19477917     0.03137413     Uiso  ? I
I 1.0 0.92125858     0.01044474     0.74839691     Uiso  ? I
I 1.0 0.05652927     0.99967861     0.25181256     Uiso  ? I
I 1.0 0.42783942     0.50146414     0.24997732     Uiso  ? I
I 1.0 0.55669897     0.48544989     0.75505929     Uiso  ? I
