
#======================================================================
# CRYSTAL DATA
#----------------------------------------------------------------------
data_VESTA_phase_1

_chemical_name_common                  ' struc4'
_cell_length_a                         8.6197900772
_cell_length_b                         8.8517599106
_cell_length_c                         12.5012798309
_cell_angle_alpha                      90.000000
_cell_angle_beta                       90.000000
_cell_angle_gamma                      90.000000
_cell_volume                           953.851554537
_space_group_name_H-M_alt              'P 1'
_space_group_IT_number                 1

loop_
_space_group_symop_operation_xyz
   'x, y, z'

loop_
   _atom_site_label
   _atom_site_occupancy
   _atom_site_fract_x
   _atom_site_fract_y
   _atom_site_fract_z
   _atom_site_adp_type
   _atom_site_U_iso_or_equiv
   _atom_site_type_symbol
Pb 1.0 0.97807197     0.03975187     0.01086731     Uiso  ? Pb
Pb 1.0 0.02720574     0.01374479     0.48980702     Uiso  ? Pb
Pb 1.0 0.54756901     0.46076261     0.50016878     Uiso  ? Pb
Pb 1.0 0.4802791     0.5028198     0.9768342     Uiso  ? Pb
Cs 1.0 0.97356745     0.42144173     0.22849278     Uiso  ? Cs
Cs 1.0 0.00415346     0.61883942     0.75434562     Uiso  ? Cs
Cs 1.0 0.524266     0.00897545     0.79217598     Uiso  ? Cs
Cs 1.0 0.47192483     0.91171151     0.29794307     Uiso  ? Cs
I 1.0 0.20096689     0.32610477     0.51038633     Uiso  ? I
I 1.0 0.81705185     0.70183031     0.46804918     Uiso  ? I
I 1.0 0.73267699     0.18852992     0.4246857     Uiso  ? I
I 1.0 0.32850852     0.80400473     0.55389135     Uiso  ? I
I 1.0 0.77787781     0.73320377     0.01619428     Uiso  ? I
I 1.0 0.17578123     0.32655388     0.95383513     Uiso  ? I
I 1.0 0.26669073     0.79654083     0.0014508     Uiso  ? I
I 1.0 0.63231015     0.15168063     0.06115171     Uiso  ? I
I 1.0 0.92479012     0.07478515     0.74209734     Uiso  ? I
I 1.0 0.05647144     0.99899755     0.24725527     Uiso  ? I
I 1.0 0.44453342     0.49788799     0.22956116     Uiso  ? I
I 1.0 0.6155762     0.41287099     0.75148412     Uiso  ? I
