
#======================================================================
# CRYSTAL DATA
#----------------------------------------------------------------------
data_VESTA_phase_1

_chemical_name_common                  ' struc4'
_cell_length_a                         8.6197900772
_cell_length_b                         8.8517599106
_cell_length_c                         12.5012798309
_cell_angle_alpha                      90.000000
_cell_angle_beta                       90.000000
_cell_angle_gamma                      90.000000
_cell_volume                           953.851554537
_space_group_name_H-M_alt              'P 1'
_space_group_IT_number                 1

loop_
_space_group_symop_operation_xyz
   'x, y, z'

loop_
   _atom_site_label
   _atom_site_occupancy
   _atom_site_fract_x
   _atom_site_fract_y
   _atom_site_fract_z
   _atom_site_adp_type
   _atom_site_U_iso_or_equiv
   _atom_site_type_symbol
Pb 1.0 0.97745965     0.03896594     0.01092494     Uiso  ? Pb
Pb 1.0 0.02725581     0.01382239     0.49003116     Uiso  ? Pb
Pb 1.0 0.54761071     0.46051676     0.50023033     Uiso  ? Pb
Pb 1.0 0.48049471     0.50316514     0.97686616     Uiso  ? Pb
Cs 1.0 0.97336552     0.42189199     0.22819885     Uiso  ? Cs
Cs 1.0 0.00419991     0.61811867     0.75410402     Uiso  ? Cs
Cs 1.0 0.52481175     0.00939616     0.79155573     Uiso  ? Cs
Cs 1.0 0.47175145     0.91185514     0.29796903     Uiso  ? Cs
I 1.0 0.20042378     0.32575191     0.51059203     Uiso  ? I
I 1.0 0.81706962     0.70271892     0.46784272     Uiso  ? I
I 1.0 0.73243283     0.18880068     0.42453996     Uiso  ? I
I 1.0 0.32883078     0.80402899     0.5541721     Uiso  ? I
I 1.0 0.77667026     0.73386668     0.01607943     Uiso  ? I
I 1.0 0.17587643     0.32704992     0.95450334     Uiso  ? I
I 1.0 0.26682584     0.79564695     0.00149945     Uiso  ? I
I 1.0 0.63307115     0.15249941     0.06117156     Uiso  ? I
I 1.0 0.92487538     0.07371945     0.74204294     Uiso  ? I
I 1.0 0.05682474     0.99893027     0.24665089     Uiso  ? I
I 1.0 0.44452204     0.49662696     0.22971957     Uiso  ? I
I 1.0 0.6160833     0.41403674     0.75179882     Uiso  ? I
