
#======================================================================
# CRYSTAL DATA
#----------------------------------------------------------------------
data_VESTA_phase_1

_chemical_name_common                  ' struc4'
_cell_length_a                         8.6197900772
_cell_length_b                         8.8517599106
_cell_length_c                         12.5012798309
_cell_angle_alpha                      90.000000
_cell_angle_beta                       90.000000
_cell_angle_gamma                      90.000000
_cell_volume                           953.851554537
_space_group_name_H-M_alt              'P 1'
_space_group_IT_number                 1

loop_
_space_group_symop_operation_xyz
   'x, y, z'

loop_
   _atom_site_label
   _atom_site_occupancy
   _atom_site_fract_x
   _atom_site_fract_y
   _atom_site_fract_z
   _atom_site_adp_type
   _atom_site_U_iso_or_equiv
   _atom_site_type_symbol
Pb 1.0 0.97683715     0.03817138     0.01096123     Uiso  ? Pb
Pb 1.0 0.02731659     0.01388998     0.49027925     Uiso  ? Pb
Pb 1.0 0.54763403     0.46029213     0.50029053     Uiso  ? Pb
Pb 1.0 0.4807202     0.50351123     0.97691814     Uiso  ? Pb
Cs 1.0 0.97316647     0.42236186     0.22790895     Uiso  ? Cs
Cs 1.0 0.00425477     0.6174067     0.75386114     Uiso  ? Cs
Cs 1.0 0.52532218     0.00979759     0.79094017     Uiso  ? Cs
Cs 1.0 0.47159653     0.91199531     0.29797242     Uiso  ? Cs
I 1.0 0.19988831     0.3254038     0.51079699     Uiso  ? I
I 1.0 0.8170898     0.70359285     0.46763698     Uiso  ? I
I 1.0 0.73216804     0.18907921     0.42439736     Uiso  ? I
I 1.0 0.32914133     0.80404029     0.55446432     Uiso  ? I
I 1.0 0.77547744     0.73450153     0.01596253     Uiso  ? I
I 1.0 0.17596188     0.32754256     0.95516007     Uiso  ? I
I 1.0 0.26696385     0.79476261     0.00153177     Uiso  ? I
I 1.0 0.63383871     0.15334443     0.06118846     Uiso  ? I
I 1.0 0.92499065     0.07264389     0.74198905     Uiso  ? I
I 1.0 0.0571849     0.9988572     0.24605203     Uiso  ? I
I 1.0 0.44451092     0.49537714     0.22989808     Uiso  ? I
I 1.0 0.6165799     0.41520634     0.75208674     Uiso  ? I
