
#======================================================================
# CRYSTAL DATA
#----------------------------------------------------------------------
data_VESTA_phase_1

_chemical_name_common                  ' struc4'
_cell_length_a                         8.6197900772
_cell_length_b                         8.8517599106
_cell_length_c                         12.5012798309
_cell_angle_alpha                      90.000000
_cell_angle_beta                       90.000000
_cell_angle_gamma                      90.000000
_cell_volume                           953.851554537
_space_group_name_H-M_alt              'P 1'
_space_group_IT_number                 1

loop_
_space_group_symop_operation_xyz
   'x, y, z'

loop_
   _atom_site_label
   _atom_site_occupancy
   _atom_site_fract_x
   _atom_site_fract_y
   _atom_site_fract_z
   _atom_site_adp_type
   _atom_site_U_iso_or_equiv
   _atom_site_type_symbol
Pb 1.0 0.97620582     0.03736968     0.01097598     Uiso  ? Pb
Pb 1.0 0.02738764     0.01394737     0.49055007     Uiso  ? Pb
Pb 1.0 0.54763907     0.46008931     0.50034925     Uiso  ? Pb
Pb 1.0 0.48095484     0.50385767     0.97699012     Uiso  ? Pb
Cs 1.0 0.9729703     0.42285077     0.22762324     Uiso  ? Cs
Cs 1.0 0.00431846     0.61670361     0.75361711     Uiso  ? Cs
Cs 1.0 0.52579676     0.01018024     0.79033008     Uiso  ? Cs
Cs 1.0 0.47145989     0.91213147     0.29795339     Uiso  ? Cs
I 1.0 0.19936177     0.32506171     0.51100121     Uiso  ? I
I 1.0 0.81711131     0.7044507     0.46743208     Uiso  ? I
I 1.0 0.73188456     0.18936424     0.42425786     Uiso  ? I
I 1.0 0.32943971     0.80403916     0.55476755     Uiso  ? I
I 1.0 0.77430007     0.73510855     0.0158436     Uiso  ? I
I 1.0 0.17603666     0.32802988     0.95580527     Uiso  ? I
I 1.0 0.26710399     0.79388898     0.00154784     Uiso  ? I
I 1.0 0.6346125     0.15421436     0.0612023     Uiso  ? I
I 1.0 0.9251362     0.07155955     0.74193508     Uiso  ? I
I 1.0 0.05755117     0.99877903     0.24546123     Uiso  ? I
I 1.0 0.44450013     0.49413908     0.2300969     Uiso  ? I
I 1.0 0.61706591     0.41637834     0.75234742     Uiso  ? I
