
#======================================================================
# CRYSTAL DATA
#----------------------------------------------------------------------
data_VESTA_phase_1

_chemical_name_common                  ' struc4'
_cell_length_a                         8.6197900772
_cell_length_b                         8.8517599106
_cell_length_c                         12.5012798309
_cell_angle_alpha                      90.000000
_cell_angle_beta                       90.000000
_cell_angle_gamma                      90.000000
_cell_volume                           953.851554537
_space_group_name_H-M_alt              'P 1'
_space_group_IT_number                 1

loop_
_space_group_symop_operation_xyz
   'x, y, z'

loop_
   _atom_site_label
   _atom_site_occupancy
   _atom_site_fract_x
   _atom_site_fract_y
   _atom_site_fract_z
   _atom_site_adp_type
   _atom_site_U_iso_or_equiv
   _atom_site_type_symbol
Pb 1.0 0.96900785     0.02843798     0.00972511     Uiso  ? Pb
Pb 1.0 0.02870612     0.01386616     0.49469212     Uiso  ? Pb
Pb 1.0 0.54651534     0.45942046     0.50088513     Uiso  ? Pb
Pb 1.0 0.48394911     0.50750969     0.97905218     Uiso  ? Pb
Cs 1.0 0.97099561     0.42937953     0.22479316     Uiso  ? Cs
Cs 1.0 0.00571389     0.609554     0.75087598     Uiso  ? Cs
Cs 1.0 0.52859859     0.01332973     0.78412523     Uiso  ? Cs
Cs 1.0 0.47110529     0.91323221     0.2963395     Uiso  ? Cs
I 1.0 0.19445493     0.3220237     0.51323921     Uiso  ? I
I 1.0 0.81716564     0.71252865     0.46524302     Uiso  ? I
I 1.0 0.72805879     0.19257684     0.42293216     Uiso  ? I
I 1.0 0.33184087     0.80333864     0.55863418     Uiso  ? I
I 1.0 0.76251381     0.74001659     0.01445952     Uiso  ? I
I 1.0 0.175938     0.33258251     0.9621277     Uiso  ? I
I 1.0 0.26861608     0.78528709     0.00067009     Uiso  ? I
I 1.0 0.64344813     0.16513004     0.06111445     Uiso  ? I
I 1.0 0.92873471     0.05920577     0.741231     Uiso  ? I
I 1.0 0.06183806     0.99774216     0.24007665     Uiso  ? I
I 1.0 0.44438916     0.48150473     0.2336363     Uiso  ? I
I 1.0 0.62169515     0.42912097     0.7533944     Uiso  ? I
