
#======================================================================
# CRYSTAL DATA
#----------------------------------------------------------------------
data_VESTA_phase_1

_chemical_name_common                  ' struc4'
_cell_length_a                         8.6197900772
_cell_length_b                         8.8517599106
_cell_length_c                         12.5012798309
_cell_angle_alpha                      90.000000
_cell_angle_beta                       90.000000
_cell_angle_gamma                      90.000000
_cell_volume                           953.851554537
_space_group_name_H-M_alt              'P 1'
_space_group_IT_number                 1

loop_
_space_group_symop_operation_xyz
   'x, y, z'

loop_
   _atom_site_label
   _atom_site_occupancy
   _atom_site_fract_x
   _atom_site_fract_y
   _atom_site_fract_z
   _atom_site_adp_type
   _atom_site_U_iso_or_equiv
   _atom_site_type_symbol
Pb 1.0 0.96708217     0.02608061     0.00896178     Uiso  ? Pb
Pb 1.0 0.02918413     0.01360885     0.49607708     Uiso  ? Pb
Pb 1.0 0.5458462     0.45976335     0.50099066     Uiso  ? Pb
Pb 1.0 0.48482893     0.50837217     0.97998933     Uiso  ? Pb
Cs 1.0 0.97051023     0.43147291     0.22413522     Uiso  ? Cs
Cs 1.0 0.00636022     0.60778641     0.75012005     Uiso  ? Cs
Cs 1.0 0.52861303     0.0139328     0.78261217     Uiso  ? Cs
Cs 1.0 0.47134987     0.91337019     0.29548644     Uiso  ? Cs
I 1.0 0.19347786     0.32152313     0.513863     Uiso  ? I
I 1.0 0.81704195     0.71422902     0.46466837     Uiso  ? I
I 1.0 0.72696859     0.19336197     0.42264731     Uiso  ? I
I 1.0 0.33219688     0.80296898     0.55978647     Uiso  ? I
I 1.0 0.75971071     0.74083133     0.01408223     Uiso  ? I
I 1.0 0.17557292     0.33344086     0.96360273     Uiso  ? I
I 1.0 0.26895813     0.78336045     0.00011505     Uiso  ? I
I 1.0 0.64593472     0.16842721     0.06100543     Uiso  ? I
I 1.0 0.93031494     0.0557545     0.74098874     Uiso  ? I
I 1.0 0.06303749     0.99745407     0.23910171     Uiso  ? I
I 1.0 0.44434944     0.47843158     0.23501651     Uiso  ? I
I 1.0 0.62270951     0.43245832     0.75312235     Uiso  ? I
