
#======================================================================
# CRYSTAL DATA
#----------------------------------------------------------------------
data_VESTA_phase_1

_chemical_name_common                  ' struc4'
_cell_length_a                         8.6197900772
_cell_length_b                         8.8517599106
_cell_length_c                         12.5012798309
_cell_angle_alpha                      90.000000
_cell_angle_beta                       90.000000
_cell_angle_gamma                      90.000000
_cell_volume                           953.851554537
_space_group_name_H-M_alt              'P 1'
_space_group_IT_number                 1

loop_
_space_group_symop_operation_xyz
   'x, y, z'

loop_
   _atom_site_label
   _atom_site_occupancy
   _atom_site_fract_x
   _atom_site_fract_y
   _atom_site_fract_z
   _atom_site_adp_type
   _atom_site_U_iso_or_equiv
   _atom_site_type_symbol
Pb 1.0 0.96645491     0.02531211     0.00867192     Uiso  ? Pb
Pb 1.0 0.02935025     0.01350043     0.4965526     Uiso  ? Pb
Pb 1.0 0.54559014     0.45992869     0.5010213     Uiso  ? Pb
Pb 1.0 0.48512192     0.50863766     0.98033364     Uiso  ? Pb
Cs 1.0 0.9703528     0.4321953     0.22392726     Uiso  ? Cs
Cs 1.0 0.00660582     0.60721355     0.74986825     Uiso  ? Cs
Cs 1.0 0.52855149     0.01411795     0.78212654     Uiso  ? Cs
Cs 1.0 0.47146184     0.91339892     0.29516578     Uiso  ? Cs
I 1.0 0.19319151     0.32139448     0.51407382     Uiso  ? I
I 1.0 0.81698141     0.71474292     0.46447902     Uiso  ? I
I 1.0 0.726616     0.1936057     0.42256153     Uiso  ? I
I 1.0 0.332286     0.80283212     0.560174     Uiso  ? I
I 1.0 0.75881915     0.74105792     0.01395885     Uiso  ? I
I 1.0 0.17541729     0.33368204     0.96407044     Uiso  ? I
I 1.0 0.26905977     0.78276665     0.99990203     Uiso  ? I
I 1.0 0.64676897     0.16954735     0.06096027     Uiso  ? I
I 1.0 0.930892     0.05460063     0.74090425     Uiso  ? I
I 1.0 0.0634348     0.99736193     0.23882921     Uiso  ? I
I 1.0 0.44433355     0.47744622     0.23551293     Uiso  ? I
I 1.0 0.62302021     0.43355127     0.75298412     Uiso  ? I
