
#======================================================================
# CRYSTAL DATA
#----------------------------------------------------------------------
data_VESTA_phase_1

_chemical_name_common                  ' struc4'
_cell_length_a                         8.6197900772
_cell_length_b                         8.8517599106
_cell_length_c                         12.5012798309
_cell_angle_alpha                      90.000000
_cell_angle_beta                       90.000000
_cell_angle_gamma                      90.000000
_cell_volume                           953.851554537
_space_group_name_H-M_alt              'P 1'
_space_group_IT_number                 1

loop_
_space_group_symop_operation_xyz
   'x, y, z'

loop_
   _atom_site_label
   _atom_site_occupancy
   _atom_site_fract_x
   _atom_site_fract_y
   _atom_site_fract_z
   _atom_site_adp_type
   _atom_site_U_iso_or_equiv
   _atom_site_type_symbol
Pb 1.0 0.9652289     0.02380623     0.00804321     Uiso  ? Pb
Pb 1.0 0.02969036     0.01324999     0.49751843     Uiso  ? Pb
Pb 1.0 0.54502959     0.46033554     0.50107516     Uiso  ? Pb
Pb 1.0 0.48570374     0.50912955     0.98106716     Uiso  ? Pb
Cs 1.0 0.97004392     0.43367445     0.22352809     Uiso  ? Cs
Cs 1.0 0.00714641     0.60609045     0.74936517     Uiso  ? Cs
Cs 1.0 0.52833345     0.01446972     0.78118494     Uiso  ? Cs
Cs 1.0 0.47173019     0.91342976     0.29447271     Uiso  ? Cs
I 1.0 0.19267912     0.32119716     0.5145009     Uiso  ? I
I 1.0 0.81682925     0.71568994     0.46410318     Uiso  ? I
I 1.0 0.72593404     0.19406235     0.42240511     Uiso  ? I
I 1.0 0.33241969     0.80253992     0.56095043     Uiso  ? I
I 1.0 0.757101     0.74144697     0.01371702     Uiso  ? I
I 1.0 0.17505529     0.33409337     0.96496969     Uiso  ? I
I 1.0 0.2692415     0.78165717     0.9994354     Uiso  ? I
I 1.0 0.64844561     0.17181394     0.06085611     Uiso  ? I
I 1.0 0.93211646     0.05228906     0.74073194     Uiso  ? I
I 1.0 0.06422208     0.99718598     0.23836157     Uiso  ? I
I 1.0 0.44429611     0.47553459     0.23655722     Uiso  ? I
I 1.0 0.62359686     0.43570541     0.75264267     Uiso  ? I
