
#======================================================================
# CRYSTAL DATA
#----------------------------------------------------------------------
data_VESTA_phase_1

_chemical_name_common                  ' struc4'
_cell_length_a                         8.6197900772
_cell_length_b                         8.8517599106
_cell_length_c                         12.5012798309
_cell_angle_alpha                      90.000000
_cell_angle_beta                       90.000000
_cell_angle_gamma                      90.000000
_cell_volume                           953.851554537
_space_group_name_H-M_alt              'P 1'
_space_group_IT_number                 1

loop_
_space_group_symop_operation_xyz
   'x, y, z'

loop_
   _atom_site_label
   _atom_site_occupancy
   _atom_site_fract_x
   _atom_site_fract_y
   _atom_site_fract_z
   _atom_site_adp_type
   _atom_site_U_iso_or_equiv
   _atom_site_type_symbol
Pb 1.0 0.00364001     0.00893079     0.0060748     Uiso  ? Pb
Pb 1.0 0.9974318     0.9993477     0.49398677     Uiso  ? Pb
Pb 1.0 0.50683756     0.49926949     0.49953158     Uiso  ? Pb
Pb 1.0 0.49689922     0.51432576     0.99399284     Uiso  ? Pb
Cs 1.0 0.98945424     0.4485473     0.25320084     Uiso  ? Cs
Cs 1.0 0.01475563     0.57241782     0.75093648     Uiso  ? Cs
Cs 1.0 0.49685059     0.03890229     0.74738375     Uiso  ? Cs
Cs 1.0 0.52136511     0.95177699     0.25079079     Uiso  ? Cs
I 1.0 0.20703631     0.30808552     0.52142462     Uiso  ? I
I 1.0 0.8064073     0.69249195     0.47346563     Uiso  ? I
I 1.0 0.70646858     0.19707355     0.46987037     Uiso  ? I
I 1.0 0.30280648     0.79969028     0.53836071     Uiso  ? I
I 1.0 0.81257184     0.69407901     0.02862255     Uiso  ? I
I 1.0 0.18067529     0.28825659     0.9603138     Uiso  ? I
I 1.0 0.29766759     0.78246557     0.97843903     Uiso  ? I
I 1.0 0.69951802     0.19359002     0.03161707     Uiso  ? I
I 1.0 0.91834983     0.01273732     0.74812183     Uiso  ? I
I 1.0 0.05545479     0.99928943     0.25206877     Uiso  ? I
I 1.0 0.42610963     0.50149958     0.25003143     Uiso  ? I
I 1.0 0.55559812     0.48283265     0.75571544     Uiso  ? I
