
#======================================================================
# CRYSTAL DATA
#----------------------------------------------------------------------
data_VESTA_phase_1

_chemical_name_common                  ' struc4'
_cell_length_a                         8.6197900772
_cell_length_b                         8.8517599106
_cell_length_c                         12.5012798309
_cell_angle_alpha                      90.000000
_cell_angle_beta                       90.000000
_cell_angle_gamma                      90.000000
_cell_volume                           953.851554537
_space_group_name_H-M_alt              'P 1'
_space_group_IT_number                 1

loop_
_space_group_symop_operation_xyz
   'x, y, z'

loop_
   _atom_site_label
   _atom_site_occupancy
   _atom_site_fract_x
   _atom_site_fract_y
   _atom_site_fract_z
   _atom_site_adp_type
   _atom_site_U_iso_or_equiv
   _atom_site_type_symbol
Pb 1.0 0.96463243     0.02307046     0.00770594     Uiso  ? Pb
Pb 1.0 0.02986367     0.01310815     0.49800683     Uiso  ? Pb
Pb 1.0 0.54472558     0.46057673     0.5010981     Uiso  ? Pb
Pb 1.0 0.48599127     0.50935395     0.98145535     Uiso  ? Pb
Cs 1.0 0.9698924     0.43443065     0.22333705     Uiso  ? Cs
Cs 1.0 0.00744233     0.60553954     0.74911389     Uiso  ? Cs
Cs 1.0 0.52817868     0.01463812     0.78072932     Uiso  ? Cs
Cs 1.0 0.4718862     0.91343169     0.29410116     Uiso  ? Cs
I 1.0 0.19245318     0.3211291     0.51471755     Uiso  ? I
I 1.0 0.81673716     0.71612265     0.4639165     Uiso  ? I
I 1.0 0.72560686     0.1942743     0.42233514     Uiso  ? I
I 1.0 0.33246455     0.80238484     0.56133813     Uiso  ? I
I 1.0 0.7562746     0.74161051     0.01359906     Uiso  ? I
I 1.0 0.17484926     0.33426275     0.96540112     Uiso  ? I
I 1.0 0.26932021     0.78114255     0.9991821     Uiso  ? I
I 1.0 0.64928797     0.17295872     0.06079698     Uiso  ? I
I 1.0 0.93276156     0.05113182     0.74064516     Uiso  ? I
I 1.0 0.064611     0.99710304     0.23816548     Uiso  ? I
I 1.0 0.44427414     0.47460922     0.23710377     Uiso  ? I
I 1.0 0.62386181     0.43676571     0.7524417     Uiso  ? I
