
#======================================================================
# CRYSTAL DATA
#----------------------------------------------------------------------
data_VESTA_phase_1

_chemical_name_common                  ' struc4'
_cell_length_a                         8.6197900772
_cell_length_b                         8.8517599106
_cell_length_c                         12.5012798309
_cell_angle_alpha                      90.000000
_cell_angle_beta                       90.000000
_cell_angle_gamma                      90.000000
_cell_volume                           953.851554537
_space_group_name_H-M_alt              'P 1'
_space_group_IT_number                 1

loop_
_space_group_symop_operation_xyz
   'x, y, z'

loop_
   _atom_site_label
   _atom_site_occupancy
   _atom_site_fract_x
   _atom_site_fract_y
   _atom_site_fract_z
   _atom_site_adp_type
   _atom_site_U_iso_or_equiv
   _atom_site_type_symbol
Pb 1.0 0.00370084     0.00934879     0.00634639     Uiso  ? Pb
Pb 1.0 0.99736447     0.99931713     0.49376037     Uiso  ? Pb
Pb 1.0 0.50715756     0.4992426     0.49948903     Uiso  ? Pb
Pb 1.0 0.49683901     0.51493848     0.9937536     Uiso  ? Pb
Cs 1.0 0.98976731     0.4486968     0.25335808     Uiso  ? Cs
Cs 1.0 0.0146567     0.57340083     0.75097367     Uiso  ? Cs
Cs 1.0 0.49753205     0.03805041     0.74727769     Uiso  ? Cs
Cs 1.0 0.52161361     0.95209416     0.25083966     Uiso  ? Cs
I 1.0 0.20741396     0.30847105     0.5209587     Uiso  ? I
I 1.0 0.80673833     0.69210197     0.47366556     Uiso  ? I
I 1.0 0.70684832     0.19692004     0.46985653     Uiso  ? I
I 1.0 0.30286148     0.79969191     0.53879586     Uiso  ? I
I 1.0 0.81301112     0.69359237     0.02852916     Uiso  ? I
I 1.0 0.18001302     0.28797405     0.95977177     Uiso  ? I
I 1.0 0.29727593     0.78180881     0.97888479     Uiso  ? I
I 1.0 0.69957061     0.19319517     0.03170597     Uiso  ? I
I 1.0 0.91740854     0.0134901     0.74803378     Uiso  ? I
I 1.0 0.05511848     0.99915942     0.25214244     Uiso  ? I
I 1.0 0.42554607     0.50151963     0.25005555     Uiso  ? I
I 1.0 0.55524621     0.48195184     0.75589373     Uiso  ? I
