
#======================================================================
# CRYSTAL DATA
#----------------------------------------------------------------------
data_VESTA_phase_1

_chemical_name_common                  ' struc4'
_cell_length_a                         8.6197900772
_cell_length_b                         8.8517599106
_cell_length_c                         12.5012798309
_cell_angle_alpha                      90.000000
_cell_angle_beta                       90.000000
_cell_angle_gamma                      90.000000
_cell_volume                           953.851554537
_space_group_name_H-M_alt              'P 1'
_space_group_IT_number                 1

loop_
_space_group_symop_operation_xyz
   'x, y, z'

loop_
   _atom_site_label
   _atom_site_occupancy
   _atom_site_fract_x
   _atom_site_fract_y
   _atom_site_fract_z
   _atom_site_adp_type
   _atom_site_U_iso_or_equiv
   _atom_site_type_symbol
Pb 1.0 0.95753292     0.01338684     0.00103033     Uiso  ? Pb
Pb 1.0 0.03274111     0.00946671     0.50548364     Uiso  ? Pb
Pb 1.0 0.53798813     0.46754361     0.50100379     Uiso  ? Pb
Pb 1.0 0.48966098     0.51014232     0.98911024     Uiso  ? Pb
Cs 1.0 0.96773481     0.4477868     0.22117736     Uiso  ? Cs
Cs 1.0 0.01478929     0.59731208     0.7451245     Uiso  ? Cs
Cs 1.0 0.52240961     0.01735033     0.77490225     Uiso  ? Cs
Cs 1.0 0.47624591     0.91223949     0.28629038     Uiso  ? Cs
I 1.0 0.19149038     0.32277586     0.51854858     Uiso  ? I
I 1.0 0.81376338     0.71940717     0.46100873     Uiso  ? I
I 1.0 0.72221764     0.19600537     0.4222864     Uiso  ? I
I 1.0 0.33128779     0.79917845     0.56699668     Uiso  ? I
I 1.0 0.74612754     0.74203263     0.01217855     Uiso  ? I
I 1.0 0.16961779     0.33348797     0.97063953     Uiso  ? I
I 1.0 0.26904929     0.77693827     0.99340893     Uiso  ? I
I 1.0 0.66315401     0.19162804     0.05920056     Uiso  ? I
I 1.0 0.94500099     0.03266198     0.73983132     Uiso  ? I
I 1.0 0.06989248     0.99645409     0.23776351     Uiso  ? I
I 1.0 0.44335733     0.46293218     0.24731329     Uiso  ? I
I 1.0 0.62548738     0.45212435     0.74753586     Uiso  ? I
