
#======================================================================
# CRYSTAL DATA
#----------------------------------------------------------------------
data_VESTA_phase_1

_chemical_name_common                  ' struc4'
_cell_length_a                         8.6197900772
_cell_length_b                         8.8517599106
_cell_length_c                         12.5012798309
_cell_angle_alpha                      90.000000
_cell_angle_beta                       90.000000
_cell_angle_gamma                      90.000000
_cell_volume                           953.851554537
_space_group_name_H-M_alt              'P 1'
_space_group_IT_number                 1

loop_
_space_group_symop_operation_xyz
   'x, y, z'

loop_
   _atom_site_label
   _atom_site_occupancy
   _atom_site_fract_x
   _atom_site_fract_y
   _atom_site_fract_z
   _atom_site_adp_type
   _atom_site_U_iso_or_equiv
   _atom_site_type_symbol
Pb 1.0 0.95675491     0.0117218     0.99924727     Uiso  ? Pb
Pb 1.0 0.03346007     0.0082369     0.50696293     Uiso  ? Pb
Pb 1.0 0.53586947     0.4700539     0.50082655     Uiso  ? Pb
Pb 1.0 0.49007715     0.5093084     0.99129685     Uiso  ? Pb
Cs 1.0 0.96728557     0.45142754     0.22095125     Uiso  ? Cs
Cs 1.0 0.01742532     0.59528672     0.74414024     Uiso  ? Cs
Cs 1.0 0.52027187     0.0182392     0.77386147     Uiso  ? Cs
Cs 1.0 0.47786577     0.91160864     0.28388237     Uiso  ? Cs
I 1.0 0.19190301     0.32386263     0.51964635     Uiso  ? I
I 1.0 0.81261811     0.71926134     0.46030489     Uiso  ? I
I 1.0 0.72199365     0.19599696     0.4227122     Uiso  ? I
I 1.0 0.33049627     0.79816871     0.5681054     Uiso  ? I
I 1.0 0.74452881     0.74169486     0.01202184     Uiso  ? I
I 1.0 0.16788233     0.33226424     0.97147332     Uiso  ? I
I 1.0 0.268469     0.77711129     0.99148605     Uiso  ? I
I 1.0 0.66675676     0.19617687     0.05859593     Uiso  ? I
I 1.0 0.94826621     0.02807866     0.7400618     Uiso  ? I
I 1.0 0.07078237     0.99653335     0.23820739     Uiso  ? I
I 1.0 0.44285895     0.46100123     0.2500073     Uiso  ? I
I 1.0 0.62501888     0.45550373     0.74618401     Uiso  ? I
