
#======================================================================
# CRYSTAL DATA
#----------------------------------------------------------------------
data_VESTA_phase_1

_chemical_name_common                  ' struc4'
_cell_length_a                         8.6197900772
_cell_length_b                         8.8517599106
_cell_length_c                         12.5012798309
_cell_angle_alpha                      90.000000
_cell_angle_beta                       90.000000
_cell_angle_gamma                      90.000000
_cell_volume                           953.851554537
_space_group_name_H-M_alt              'P 1'
_space_group_IT_number                 1

loop_
_space_group_symop_operation_xyz
   'x, y, z'

loop_
   _atom_site_label
   _atom_site_occupancy
   _atom_site_fract_x
   _atom_site_fract_y
   _atom_site_fract_z
   _atom_site_adp_type
   _atom_site_U_iso_or_equiv
   _atom_site_type_symbol
Pb 1.0 0.95861338     0.00851625     0.99345604     Uiso  ? Pb
Pb 1.0 0.0359089     0.00323453     0.50949388     Uiso  ? Pb
Pb 1.0 0.52732626     0.48103808     0.49982437     Uiso  ? Pb
Pb 1.0 0.48858291     0.50235785     0.99979603     Uiso  ? Pb
Cs 1.0 0.96604608     0.46594314     0.22154468     Uiso  ? Cs
Cs 1.0 0.02967723     0.58682956     0.74050861     Uiso  ? Cs
Cs 1.0 0.51111533     0.02324853     0.77134419     Uiso  ? Cs
Cs 1.0 0.48579182     0.90847556     0.27349528     Uiso  ? Cs
I 1.0 0.19445767     0.32863175     0.52448036     Uiso  ? I
I 1.0 0.80769349     0.71641219     0.45778579     Uiso  ? I
I 1.0 0.72312208     0.19515892     0.4265212     Uiso  ? I
I 1.0 0.32633745     0.79367532     0.57043909     Uiso  ? I
I 1.0 0.74159886     0.73962961     0.01238343     Uiso  ? I
I 1.0 0.16089629     0.32445642     0.97300756     Uiso  ? I
I 1.0 0.26469021     0.7814198     0.98270409     Uiso  ? I
I 1.0 0.68086036     0.21161352     0.05566437     Uiso  ? I
I 1.0 0.95943252     0.01135806     0.74363349     Uiso  ? I
I 1.0 0.07217025     0.99764041     0.24074414     Uiso  ? I
I 1.0 0.43934046     0.45741184     0.25843854     Uiso  ? I
I 1.0 0.62008636     0.46675194     0.74278284     Uiso  ? I
