
#======================================================================
# CRYSTAL DATA
#----------------------------------------------------------------------
data_VESTA_phase_1

_chemical_name_common                  ' struc4'
_cell_length_a                         8.6197900772
_cell_length_b                         8.8517599106
_cell_length_c                         12.5012798309
_cell_angle_alpha                      90.000000
_cell_angle_beta                       90.000000
_cell_angle_gamma                      90.000000
_cell_volume                           953.851554537
_space_group_name_H-M_alt              'P 1'
_space_group_IT_number                 1

loop_
_space_group_symop_operation_xyz
   'x, y, z'

loop_
   _atom_site_label
   _atom_site_occupancy
   _atom_site_fract_x
   _atom_site_fract_y
   _atom_site_fract_z
   _atom_site_adp_type
   _atom_site_U_iso_or_equiv
   _atom_site_type_symbol
Pb 1.0 0.9590256     0.00846024     0.99315609     Uiso  ? Pb
Pb 1.0 0.03604035     0.00291018     0.50945927     Uiso  ? Pb
Pb 1.0 0.52675935     0.48181768     0.49975894     Uiso  ? Pb
Pb 1.0 0.48828652     0.50171384     0.00036117     Uiso  ? Pb
Cs 1.0 0.96599532     0.466951     0.22166941     Uiso  ? Cs
Cs 1.0 0.03058802     0.58618577     0.74028006     Uiso  ? Cs
Cs 1.0 0.51047463     0.02369917     0.77125108     Uiso  ? Cs
Cs 1.0 0.48642127     0.90824407     0.27273267     Uiso  ? Cs
I 1.0 0.1946357     0.3289148     0.52484508     Uiso  ? I
I 1.0 0.80736982     0.71614213     0.4576272     Uiso  ? I
I 1.0 0.72328405     0.19508634     0.42691166     Uiso  ? I
I 1.0 0.32601969     0.79334341     0.57047381     Uiso  ? I
I 1.0 0.7415457     0.73945202     0.01246413     Uiso  ? I
I 1.0 0.16044243     0.32378446     0.9730258     Uiso  ? I
I 1.0 0.26437407     0.78186637     0.98203822     Uiso  ? I
I 1.0 0.68182558     0.21252634     0.05544196     Uiso  ? I
I 1.0 0.96007822     0.01027691     0.74401397     Uiso  ? I
I 1.0 0.07216361     0.99775202     0.24095217     Uiso  ? I
I 1.0 0.43898844     0.45737209     0.25882866     Uiso  ? I
I 1.0 0.61959171     0.46743175     0.7426975     Uiso  ? I
