
#======================================================================
# CRYSTAL DATA
#----------------------------------------------------------------------
data_VESTA_phase_1

_chemical_name_common                  ' struc4'
_cell_length_a                         8.6197900772
_cell_length_b                         8.8517599106
_cell_length_c                         12.5012798309
_cell_angle_alpha                      90.000000
_cell_angle_beta                       90.000000
_cell_angle_gamma                      90.000000
_cell_volume                           953.851554537
_space_group_name_H-M_alt              'P 1'
_space_group_IT_number                 1

loop_
_space_group_symop_operation_xyz
   'x, y, z'

loop_
   _atom_site_label
   _atom_site_occupancy
   _atom_site_fract_x
   _atom_site_fract_y
   _atom_site_fract_z
   _atom_site_adp_type
   _atom_site_U_iso_or_equiv
   _atom_site_type_symbol
Pb 1.0 0.95947432     0.00842085     0.9928705     Uiso  ? Pb
Pb 1.0 0.03616515     0.00259063     0.50939748     Uiso  ? Pb
Pb 1.0 0.52619683     0.48259899     0.49969667     Uiso  ? Pb
Pb 1.0 0.48796463     0.50105316     0.00092444     Uiso  ? Pb
Cs 1.0 0.96594927     0.46796279     0.22180478     Uiso  ? Cs
Cs 1.0 0.03150466     0.58552964     0.74005507     Uiso  ? Cs
Cs 1.0 0.50983357     0.02416588     0.77116679     Uiso  ? Cs
Cs 1.0 0.48706265     0.90801193     0.27196144     Uiso  ? Cs
I 1.0 0.19481006     0.32918559     0.52521492     Uiso  ? I
I 1.0 0.80705141     0.7158674     0.45747016     Uiso  ? I
I 1.0 0.7234538     0.19501448     0.42732001     Uiso  ? I
I 1.0 0.3257005     0.79300896     0.57049188     Uiso  ? I
I 1.0 0.74150592     0.73926878     0.01255199     Uiso  ? I
I 1.0 0.15999446     0.32309775     0.97303443     Uiso  ? I
I 1.0 0.26405401     0.78232707     0.98136371     Uiso  ? I
I 1.0 0.68279179     0.21342283     0.05521705     Uiso  ? I
I 1.0 0.96070837     0.00920042     0.74440676     Uiso  ? I
I 1.0 0.07214713     0.99786713     0.24116523     Uiso  ? I
I 1.0 0.43861918     0.45735584     0.25918971     Uiso  ? I
I 1.0 0.61907792     0.46810341     0.74263328     Uiso  ? I
