
#======================================================================
# CRYSTAL DATA
#----------------------------------------------------------------------
data_VESTA_phase_1

_chemical_name_common                  ' struc4'
_cell_length_a                         8.6197900772
_cell_length_b                         8.8517599106
_cell_length_c                         12.5012798309
_cell_angle_alpha                      90.000000
_cell_angle_beta                       90.000000
_cell_angle_gamma                      90.000000
_cell_volume                           953.851554537
_space_group_name_H-M_alt              'P 1'
_space_group_IT_number                 1

loop_
_space_group_symop_operation_xyz
   'x, y, z'

loop_
   _atom_site_label
   _atom_site_occupancy
   _atom_site_fract_x
   _atom_site_fract_y
   _atom_site_fract_z
   _atom_site_adp_type
   _atom_site_U_iso_or_equiv
   _atom_site_type_symbol
Pb 1.0 0.95995936     0.00839718     0.99259984     Uiso  ? Pb
Pb 1.0 0.03628271     0.00227649     0.50930849     Uiso  ? Pb
Pb 1.0 0.52563948     0.48338111     0.49963813     Uiso  ? Pb
Pb 1.0 0.48761738     0.50037718     0.00148551     Uiso  ? Pb
Cs 1.0 0.96590814     0.46897813     0.22195065     Uiso  ? Cs
Cs 1.0 0.03242585     0.58486109     0.73983412     Uiso  ? Cs
Cs 1.0 0.50919271     0.02464866     0.77109115     Uiso  ? Cs
Cs 1.0 0.48771572     0.90777975     0.27118198     Uiso  ? Cs
I 1.0 0.19497988     0.32944278     0.52558971     Uiso  ? I
I 1.0 0.80673905     0.71558897     0.45731476     Uiso  ? I
I 1.0 0.72363073     0.19494373     0.4277463     Uiso  ? I
I 1.0 0.32538039     0.79267222     0.57049311     Uiso  ? I
I 1.0 0.74147871     0.73907967     0.01264701     Uiso  ? I
I 1.0 0.15955332     0.32239752     0.97303369     Uiso  ? I
I 1.0 0.26373087     0.78280084     0.98068083     Uiso  ? I
I 1.0 0.68375832     0.21430273     0.05498989     Uiso  ? I
I 1.0 0.96132259     0.00812881     0.74481018     Uiso  ? I
I 1.0 0.07212136     0.99798538     0.24138346     Uiso  ? I
I 1.0 0.43823265     0.45736279     0.25952051     Uiso  ? I
I 1.0 0.61854534     0.46876682     0.74259049     Uiso  ? I
