
#======================================================================
# CRYSTAL DATA
#----------------------------------------------------------------------
data_VESTA_phase_1

_chemical_name_common                  ' struc4'
_cell_length_a                         8.6197900772
_cell_length_b                         8.8517599106
_cell_length_c                         12.5012798309
_cell_angle_alpha                      90.000000
_cell_angle_beta                       90.000000
_cell_angle_gamma                      90.000000
_cell_volume                           953.851554537
_space_group_name_H-M_alt              'P 1'
_space_group_IT_number                 1

loop_
_space_group_symop_operation_xyz
   'x, y, z'

loop_
   _atom_site_label
   _atom_site_occupancy
   _atom_site_fract_x
   _atom_site_fract_y
   _atom_site_fract_z
   _atom_site_adp_type
   _atom_site_U_iso_or_equiv
   _atom_site_type_symbol
Pb 1.0 0.96048031     0.00838843     0.99234472     Uiso  ? Pb
Pb 1.0 0.03639249     0.00196844     0.50919236     Uiso  ? Pb
Pb 1.0 0.52508802     0.48416318     0.49958396     Uiso  ? Pb
Pb 1.0 0.48724505     0.49968725     0.00204407     Uiso  ? Pb
Cs 1.0 0.9658721     0.46999666     0.22210683     Uiso  ? Cs
Cs 1.0 0.03335025     0.58417997     0.73961766     Uiso  ? Cs
Cs 1.0 0.5085526     0.0251476     0.77102401     Uiso  ? Cs
Cs 1.0 0.48838021     0.90754809     0.2703947     Uiso  ? Cs
I 1.0 0.19514449     0.32968498     0.52596916     Uiso  ? I
I 1.0 0.80643352     0.71530781     0.45716109     Uiso  ? I
I 1.0 0.72381417     0.19487443     0.42819062     Uiso  ? I
I 1.0 0.32506006     0.79233367     0.57047724     Uiso  ? I
I 1.0 0.74146307     0.73888448     0.01274913     Uiso  ? I
I 1.0 0.15911994     0.32168477     0.97302373     Uiso  ? I
I 1.0 0.26340561     0.78328654     0.97999004     Uiso  ? I
I 1.0 0.68472466     0.21516571     0.05476059     Uiso  ? I
I 1.0 0.96192056     0.00706226     0.7452223     Uiso  ? I
I 1.0 0.07208693     0.99810642     0.24160705     Uiso  ? I
I 1.0 0.43782856     0.45739252     0.2598201     Uiso  ? I
I 1.0 0.61799427     0.46942223     0.74256944     Uiso  ? I
