
#======================================================================
# CRYSTAL DATA
#----------------------------------------------------------------------
data_VESTA_phase_1

_chemical_name_common                  ' struc4'
_cell_length_a                         8.6197900772
_cell_length_b                         8.8517599106
_cell_length_c                         12.5012798309
_cell_angle_alpha                      90.000000
_cell_angle_beta                       90.000000
_cell_angle_gamma                      90.000000
_cell_volume                           953.851554537
_space_group_name_H-M_alt              'P 1'
_space_group_IT_number                 1

loop_
_space_group_symop_operation_xyz
   'x, y, z'

loop_
   _atom_site_label
   _atom_site_occupancy
   _atom_site_fract_x
   _atom_site_fract_y
   _atom_site_fract_z
   _atom_site_adp_type
   _atom_site_U_iso_or_equiv
   _atom_site_type_symbol
Pb 1.0 0.00374911     0.01052303     0.007105     Uiso  ? Pb
Pb 1.0 0.99723364     0.99922534     0.49318237     Uiso  ? Pb
Pb 1.0 0.50806591     0.49917333     0.49934611     Uiso  ? Pb
Pb 1.0 0.49677818     0.51660161     0.99312512     Uiso  ? Pb
Cs 1.0 0.99069051     0.44911797     0.25381517     Uiso  ? Cs
Cs 1.0 0.01435748     0.57636307     0.75107227     Uiso  ? Cs
Cs 1.0 0.49951388     0.03551098     0.74699589     Uiso  ? Cs
Cs 1.0 0.52234381     0.95301003     0.25099271     Uiso  ? Cs
I 1.0 0.20840533     0.30952639     0.51958772     Uiso  ? I
I 1.0 0.80784735     0.69100643     0.47424962     Uiso  ? I
I 1.0 0.70787183     0.19651838     0.46978309     Uiso  ? I
I 1.0 0.30306388     0.7996596     0.5401024     Uiso  ? I
I 1.0 0.81423651     0.69204388     0.02825465     Uiso  ? I
I 1.0 0.17826209     0.28742546     0.95810486     Uiso  ? I
I 1.0 0.29596197     0.78010222     0.98018414     Uiso  ? I
I 1.0 0.69966489     0.19201625     0.0319982     Uiso  ? I
I 1.0 0.91468431     0.01571782     0.7477794     Uiso  ? I
I 1.0 0.05417713     0.99876575     0.25232439     Uiso  ? I
I 1.0 0.42389919     0.50160674     0.25014646     Uiso  ? I
I 1.0 0.55423496     0.47927474     0.75629639     Uiso  ? I
