
#======================================================================
# CRYSTAL DATA
#----------------------------------------------------------------------
data_VESTA_phase_1

_chemical_name_common                  ' struc4'
_cell_length_a                         8.6197900772
_cell_length_b                         8.8517599106
_cell_length_c                         12.5012798309
_cell_angle_alpha                      90.000000
_cell_angle_beta                       90.000000
_cell_angle_gamma                      90.000000
_cell_volume                           953.851554537
_space_group_name_H-M_alt              'P 1'
_space_group_IT_number                 1

loop_
_space_group_symop_operation_xyz
   'x, y, z'

loop_
   _atom_site_label
   _atom_site_occupancy
   _atom_site_fract_x
   _atom_site_fract_y
   _atom_site_fract_z
   _atom_site_adp_type
   _atom_site_U_iso_or_equiv
   _atom_site_type_symbol
Pb 1.0 0.96103678     0.00839361     0.9921057     Uiso  ? Pb
Pb 1.0 0.03649387     0.00166709     0.50904922     Uiso  ? Pb
Pb 1.0 0.52454322     0.48494433     0.49953471     Uiso  ? Pb
Pb 1.0 0.48684801     0.49898486     0.00259982     Uiso  ? Pb
Cs 1.0 0.96584135     0.47101797     0.22227314     Uiso  ? Cs
Cs 1.0 0.03427655     0.58348626     0.73940621     Uiso  ? Cs
Cs 1.0 0.50791374     0.02566265     0.77096517     Uiso  ? Cs
Cs 1.0 0.48905581     0.9073175     0.26960006     Uiso  ? Cs
I 1.0 0.19530341     0.32991072     0.52635295     Uiso  ? I
I 1.0 0.80613551     0.71502504     0.45700922     Uiso  ? I
I 1.0 0.72400329     0.194807     0.42865275     Uiso  ? I
I 1.0 0.32474009     0.79199388     0.57044416     Uiso  ? I
I 1.0 0.74145806     0.7386829     0.01285826     Uiso  ? I
I 1.0 0.15869536     0.32096058     0.97300467     Uiso  ? I
I 1.0 0.26307909     0.78378297     0.97929178     Uiso  ? I
I 1.0 0.68569024     0.21601159     0.05452929     Uiso  ? I
I 1.0 0.9625018     0.00600101     0.74564122     Uiso  ? I
I 1.0 0.07204451     0.99822988     0.24183627     Uiso  ? I
I 1.0 0.43740662     0.45744475     0.26008753     Uiso  ? I
I 1.0 0.61742519     0.4700695     0.74257047     Uiso  ? I
