
#======================================================================
# CRYSTAL DATA
#----------------------------------------------------------------------
data_VESTA_phase_1

_chemical_name_common                  ' struc4'
_cell_length_a                         8.6197900772
_cell_length_b                         8.8517599106
_cell_length_c                         12.5012798309
_cell_angle_alpha                      90.000000
_cell_angle_beta                       90.000000
_cell_angle_gamma                      90.000000
_cell_volume                           953.851554537
_space_group_name_H-M_alt              'P 1'
_space_group_IT_number                 1

loop_
_space_group_symop_operation_xyz
   'x, y, z'

loop_
   _atom_site_label
   _atom_site_occupancy
   _atom_site_fract_x
   _atom_site_fract_y
   _atom_site_fract_z
   _atom_site_adp_type
   _atom_site_U_iso_or_equiv
   _atom_site_type_symbol
Pb 1.0 0.96162815     0.0084118     0.99188334     Uiso  ? Pb
Pb 1.0 0.03658627     0.00137312     0.50887924     Uiso  ? Pb
Pb 1.0 0.52400574     0.48572363     0.49949101     Uiso  ? Pb
Pb 1.0 0.48642669     0.49827145     0.00315235     Uiso  ? Pb
Cs 1.0 0.96581606     0.47204162     0.2224494     Uiso  ? Cs
Cs 1.0 0.03520348     0.58278002     0.7392003     Uiso  ? Cs
Cs 1.0 0.5072766     0.02619384     0.77091441     Uiso  ? Cs
Cs 1.0 0.4897422     0.90708853     0.26879851     Uiso  ? Cs
I 1.0 0.19545609     0.3301184     0.52674064     Uiso  ? I
I 1.0 0.80584575     0.71474186     0.45685928     Uiso  ? I
I 1.0 0.72419746     0.1947417     0.42913272     Uiso  ? I
I 1.0 0.32442122     0.79165349     0.5703937     Uiso  ? I
I 1.0 0.74146267     0.73847454     0.01297441     Uiso  ? I
I 1.0 0.15828057     0.320226     0.97297667     Uiso  ? I
I 1.0 0.26275243     0.78428911     0.9785866     Uiso  ? I
I 1.0 0.68665448     0.21684013     0.05429619     Uiso  ? I
I 1.0 0.96306608     0.00494527     0.74606479     Uiso  ? I
I 1.0 0.07199477     0.99835546     0.24207133     Uiso  ? I
I 1.0 0.43696664     0.45751898     0.26032193     Uiso  ? I
I 1.0 0.61683825     0.47070868     0.74259374     Uiso  ? I
