
#======================================================================
# CRYSTAL DATA
#----------------------------------------------------------------------
data_VESTA_phase_1

_chemical_name_common                  ' struc4'
_cell_length_a                         8.6197900772
_cell_length_b                         8.8517599106
_cell_length_c                         12.5012798309
_cell_angle_alpha                      90.000000
_cell_angle_beta                       90.000000
_cell_angle_gamma                      90.000000
_cell_volume                           953.851554537
_space_group_name_H-M_alt              'P 1'
_space_group_IT_number                 1

loop_
_space_group_symop_operation_xyz
   'x, y, z'

loop_
   _atom_site_label
   _atom_site_occupancy
   _atom_site_fract_x
   _atom_site_fract_y
   _atom_site_fract_z
   _atom_site_adp_type
   _atom_site_U_iso_or_equiv
   _atom_site_type_symbol
Pb 1.0 0.00371803     0.01088639     0.00733835     Uiso  ? Pb
Pb 1.0 0.99721533     0.99919449     0.49302546     Uiso  ? Pb
Pb 1.0 0.50835086     0.49915414     0.49929305     Uiso  ? Pb
Pb 1.0 0.49680107     0.51709424     0.99294687     Uiso  ? Pb
Cs 1.0 0.99099289     0.44924929     0.2539628     Uiso  ? Cs
Cs 1.0 0.01425673     0.57735649     0.75110051     Uiso  ? Cs
Cs 1.0 0.50015085     0.03466845     0.74691461     Uiso  ? Cs
Cs 1.0 0.52258207     0.95330346     0.25104614     Uiso  ? Cs
I 1.0 0.20868649     0.30984257     0.51913923     Uiso  ? I
I 1.0 0.80825832     0.69066703     0.47443939     Uiso  ? I
I 1.0 0.70817233     0.19640597     0.46974726     Uiso  ? I
I 1.0 0.30314426     0.79963497     0.54053851     Uiso  ? I
I 1.0 0.81461428     0.69149742     0.02816468     Uiso  ? I
I 1.0 0.1777606     0.28734703     0.95753408     Uiso  ? I
I 1.0 0.29547225     0.77962617     0.98060506     Uiso  ? I
I 1.0 0.69967332     0.19162588     0.0321044     Uiso  ? I
I 1.0 0.91381323     0.01645127     0.74769759     Uiso  ? I
I 1.0 0.05388623     0.99863265     0.25237146     Uiso  ? I
I 1.0 0.42336591     0.50164574     0.25018291     Uiso  ? I
I 1.0 0.55391251     0.47836823     0.75638458     Uiso  ? I
