
#======================================================================
# CRYSTAL DATA
#----------------------------------------------------------------------
data_VESTA_phase_1

_chemical_name_common                  ' struc4'
_cell_length_a                         8.6197900772
_cell_length_b                         8.8517599106
_cell_length_c                         12.5012798309
_cell_angle_alpha                      90.000000
_cell_angle_beta                       90.000000
_cell_angle_gamma                      90.000000
_cell_volume                           953.851554537
_space_group_name_H-M_alt              'P 1'
_space_group_IT_number                 1

loop_
_space_group_symop_operation_xyz
   'x, y, z'

loop_
   _atom_site_label
   _atom_site_occupancy
   _atom_site_fract_x
   _atom_site_fract_y
   _atom_site_fract_z
   _atom_site_adp_type
   _atom_site_U_iso_or_equiv
   _atom_site_type_symbol
Pb 1.0 0.97107156     0.00922763     0.99068728     Uiso  ? Pb
Pb 1.0 0.03677862     0.99863313     0.50490499     Uiso  ? Pb
Pb 1.0 0.51834586     0.49460756     0.49959301     Uiso  ? Pb
Pb 1.0 0.47970876     0.48938272     0.00937854     Uiso  ? Pb
Cs 1.0 0.96598418     0.48430896     0.22525575     Uiso  ? Cs
Cs 1.0 0.04592011     0.57343906     0.73736665     Uiso  ? Cs
Cs 1.0 0.49986972     0.03374851     0.77084215     Uiso  ? Cs
Cs 1.0 0.49873832     0.90471998     0.25873443     Uiso  ? Cs
I 1.0 0.19666199     0.33070032     0.53148716     Uiso  ? I
I 1.0 0.80326762     0.7116489     0.45526499     Uiso  ? I
I 1.0 0.726663     0.19422841     0.43614637     Uiso  ? I
I 1.0 0.32091815     0.78775943     0.56843911     Uiso  ? I
I 1.0 0.74194527     0.73533277     0.01488357     Uiso  ? I
I 1.0 0.15445731     0.31114972     0.97202772     Uiso  ? I
I 1.0 0.25925289     0.79062329     0.96983469     Uiso  ? I
I 1.0 0.69785247     0.22538265     0.05146676     Uiso  ? I
I 1.0 0.9683825     0.99284944     0.75073727     Uiso  ? I
I 1.0 0.07110054     0.99992132     0.24543098     Uiso  ? I
I 1.0 0.43027395     0.45997176     0.26046095     Uiso  ? I
I 1.0 0.60857439     0.47769927     0.74453853     Uiso  ? I
