
#======================================================================
# CRYSTAL DATA
#----------------------------------------------------------------------
data_VESTA_phase_1

_chemical_name_common                  ' struc4'
_cell_length_a                         8.6197900772
_cell_length_b                         8.8517599106
_cell_length_c                         12.5012798309
_cell_angle_alpha                      90.000000
_cell_angle_beta                       90.000000
_cell_angle_gamma                      90.000000
_cell_volume                           953.851554537
_space_group_name_H-M_alt              'P 1'
_space_group_IT_number                 1

loop_
_space_group_symop_operation_xyz
   'x, y, z'

loop_
   _atom_site_label
   _atom_site_occupancy
   _atom_site_fract_x
   _atom_site_fract_y
   _atom_site_fract_z
   _atom_site_adp_type
   _atom_site_U_iso_or_equiv
   _atom_site_type_symbol
Pb 1.0 0.97296227     0.00938216     0.99077408     Uiso  ? Pb
Pb 1.0 0.0366111     0.99835417     0.50394291     Uiso  ? Pb
Pb 1.0 0.51757886     0.49594288     0.4997518     Uiso  ? Pb
Pb 1.0 0.47835577     0.48793837     0.01031103     Uiso  ? Pb
Cs 1.0 0.96610365     0.48630755     0.22582658     Uiso  ? Cs
Cs 1.0 0.0475277     0.57175823     0.73721491     Uiso  ? Cs
Cs 1.0 0.49871056     0.03519737     0.77090365     Uiso  ? Cs
Cs 1.0 0.50035092     0.9044355     0.25700461     Uiso  ? Cs
I 1.0 0.19674737     0.330368     0.53224897     Uiso  ? I
I 1.0 0.80303632     0.71124882     0.45504591     Uiso  ? I
I 1.0 0.72705089     0.19420831     0.43750777     Uiso  ? I
I 1.0 0.32043233     0.7871998     0.56787963     Uiso  ? I
I 1.0 0.74204533     0.7346828     0.01528686     Uiso  ? I
I 1.0 0.15411102     0.309717     0.97177354     Uiso  ? I
I 1.0 0.25883845     0.79162104     0.96837606     Uiso  ? I
I 1.0 0.69958831     0.22655444     0.0510067     Uiso  ? I
I 1.0 0.96897811     0.99096289     0.75130225     Uiso  ? I
I 1.0 0.07095326     0.00017394     0.2460907     Uiso  ? I
I 1.0 0.42891973     0.46062696     0.26002954     Uiso  ? I
I 1.0 0.60701325     0.47873228     0.74512576     Uiso  ? I
