
#======================================================================
# CRYSTAL DATA
#----------------------------------------------------------------------
data_VESTA_phase_1

_chemical_name_common                  ' struc4'
_cell_length_a                         8.6197900772
_cell_length_b                         8.8517599106
_cell_length_c                         12.5012798309
_cell_angle_alpha                      90.000000
_cell_angle_beta                       90.000000
_cell_angle_gamma                      90.000000
_cell_volume                           953.851554537
_space_group_name_H-M_alt              'P 1'
_space_group_IT_number                 1

loop_
_space_group_symop_operation_xyz
   'x, y, z'

loop_
   _atom_site_label
   _atom_site_occupancy
   _atom_site_fract_x
   _atom_site_fract_y
   _atom_site_fract_z
   _atom_site_adp_type
   _atom_site_U_iso_or_equiv
   _atom_site_type_symbol
Pb 1.0 0.00366241     0.01123517     0.00756155     Uiso  ? Pb
Pb 1.0 0.99721044     0.99916338     0.49288734     Uiso  ? Pb
Pb 1.0 0.5086267     0.49913695     0.49923716     Uiso  ? Pb
Pb 1.0 0.49684695     0.51755461     0.99278485     Uiso  ? Pb
Cs 1.0 0.99129247     0.44937617     0.25410817     Uiso  ? Cs
Cs 1.0 0.0141554     0.57835521     0.75112636     Uiso  ? Cs
Cs 1.0 0.50077465     0.03382641     0.7468398     Uiso  ? Cs
Cs 1.0 0.52281785     0.95359114     0.25110096     Uiso  ? Cs
I 1.0 0.20894191     0.31013998     0.51869477     Uiso  ? I
I 1.0 0.80869147     0.69034099     0.47462699     Uiso  ? I
I 1.0 0.70845159     0.19630512     0.46970545     Uiso  ? I
I 1.0 0.30323129     0.79960274     0.54097497     Uiso  ? I
I 1.0 0.81497686     0.69093537     0.02807543     Uiso  ? I
I 1.0 0.17730128     0.28732267     0.95695485     Uiso  ? I
I 1.0 0.29495435     0.77919846     0.98102024     Uiso  ? I
I 1.0 0.69966922     0.19123706     0.03221525     Uiso  ? I
I 1.0 0.91296229     0.01718086     0.74761716     Uiso  ? I
I 1.0 0.053607     0.99849815     0.25241143     Uiso  ? I
I 1.0 0.42284082     0.50169012     0.25022234     Uiso  ? I
I 1.0 0.55359737     0.47745291     0.75644876     Uiso  ? I
