
#======================================================================
# CRYSTAL DATA
#----------------------------------------------------------------------
data_VESTA_phase_1

_chemical_name_common                  ' struc4'
_cell_length_a                         8.6197900772
_cell_length_b                         8.8517599106
_cell_length_c                         12.5012798309
_cell_angle_alpha                      90.000000
_cell_angle_beta                       90.000000
_cell_angle_gamma                      90.000000
_cell_volume                           953.851554537
_space_group_name_H-M_alt              'P 1'
_space_group_IT_number                 1

loop_
_space_group_symop_operation_xyz
   'x, y, z'

loop_
   _atom_site_label
   _atom_site_occupancy
   _atom_site_fract_x
   _atom_site_fract_y
   _atom_site_fract_z
   _atom_site_adp_type
   _atom_site_U_iso_or_equiv
   _atom_site_type_symbol
Pb 1.0 0.98376461     0.00951075     0.99266301     Uiso  ? Pb
Pb 1.0 0.03449268     0.99788403     0.49770459     Uiso  ? Pb
Pb 1.0 0.51439164     0.5020454     0.50144755     Uiso  ? Pb
Pb 1.0 0.47046257     0.4808693     0.0146046     Uiso  ? Pb
Cs 1.0 0.9672441     0.49662815     0.22923412     Uiso  ? Cs
Cs 1.0 0.05474635     0.56239155     0.73741761     Uiso  ? Cs
Cs 1.0 0.49299218     0.0439444     0.77136794     Uiso  ? Cs
Cs 1.0 0.50949732     0.90373046     0.24752668     Uiso  ? Cs
I 1.0 0.19689745     0.32597168     0.53584143     Uiso  ? I
I 1.0 0.80285136     0.70993736     0.45418262     Uiso  ? I
I 1.0 0.72866621     0.19448697     0.44564431     Uiso  ? I
I 1.0 0.31844938     0.78506937     0.56377305     Uiso  ? I
I 1.0 0.74242044     0.73047564     0.01784017     Uiso  ? I
I 1.0 0.1543337     0.30343726     0.96998264     Uiso  ? I
I 1.0 0.25830428     0.79592166     0.96081914     Uiso  ? I
I 1.0 0.70795077     0.2317708     0.04864944     Uiso  ? I
I 1.0 0.97056154     0.98146296     0.75258069     Uiso  ? I
I 1.0 0.07061648     0.0013721     0.24998563     Uiso  ? I
I 1.0 0.42048535     0.46514982     0.25615629     Uiso  ? I
I 1.0 0.59774623     0.48375551     0.74919942     Uiso  ? I
