
#======================================================================
# CRYSTAL DATA
#----------------------------------------------------------------------
data_VESTA_phase_1

_chemical_name_common                  ' struc4'
_cell_length_a                         8.6197900772
_cell_length_b                         8.8517599106
_cell_length_c                         12.5012798309
_cell_angle_alpha                      90.000000
_cell_angle_beta                       90.000000
_cell_angle_gamma                      90.000000
_cell_volume                           953.851554537
_space_group_name_H-M_alt              'P 1'
_space_group_IT_number                 1

loop_
_space_group_symop_operation_xyz
   'x, y, z'

loop_
   _atom_site_label
   _atom_site_occupancy
   _atom_site_fract_x
   _atom_site_fract_y
   _atom_site_fract_z
   _atom_site_adp_type
   _atom_site_U_iso_or_equiv
   _atom_site_type_symbol
Pb 1.0 0.98471669     0.00942772     0.9929386     Uiso  ? Pb
Pb 1.0 0.03419848     0.99793102     0.49709177     Uiso  ? Pb
Pb 1.0 0.51418824     0.50247699     0.50166968     Uiso  ? Pb
Pb 1.0 0.46974594     0.4803242     0.01490897     Uiso  ? Pb
Cs 1.0 0.96738779     0.49749225     0.22955148     Uiso  ? Cs
Cs 1.0 0.05524374     0.56155981     0.73752827     Uiso  ? Cs
Cs 1.0 0.49253618     0.04479065     0.7714082     Uiso  ? Cs
Cs 1.0 0.51034038     0.9037494     0.24668305     Uiso  ? Cs
I 1.0 0.19690829     0.32535605     0.53609805     Uiso  ? I
I 1.0 0.80291618     0.70989618     0.45413846     Uiso  ? I
I 1.0 0.72875273     0.19454594     0.446421     Uiso  ? I
I 1.0 0.31832682     0.78497485     0.56332635     Uiso  ? I
I 1.0 0.74243953     0.73004771     0.01809317     Uiso  ? I
I 1.0 0.15455101     0.30304652     0.96979003     Uiso  ? I
I 1.0 0.2584428     0.796174     0.96019069     Uiso  ? I
I 1.0 0.70859235     0.23214909     0.04845342     Uiso  ? I
I 1.0 0.97055538     0.98068142     0.75254096     Uiso  ? I
I 1.0 0.07064349     0.00146009     0.25033508     Uiso  ? I
I 1.0 0.41964839     0.46562245     0.25574015     Uiso  ? I
I 1.0 0.59685752     0.48416101     0.74961151     Uiso  ? I
