
#======================================================================
# CRYSTAL DATA
#----------------------------------------------------------------------
data_VESTA_phase_1

_chemical_name_common                  ' struc4'
_cell_length_a                         8.6197900772
_cell_length_b                         8.8517599106
_cell_length_c                         12.5012798309
_cell_angle_alpha                      90.000000
_cell_angle_beta                       90.000000
_cell_angle_gamma                      90.000000
_cell_volume                           953.851554537
_space_group_name_H-M_alt              'P 1'
_space_group_IT_number                 1

loop_
_space_group_symop_operation_xyz
   'x, y, z'

loop_
   _atom_site_label
   _atom_site_occupancy
   _atom_site_fract_x
   _atom_site_fract_y
   _atom_site_fract_z
   _atom_site_adp_type
   _atom_site_U_iso_or_equiv
   _atom_site_type_symbol
Pb 1.0 0.98565463     0.00932468     0.99322823     Uiso  ? Pb
Pb 1.0 0.03388774     0.99799257     0.49647717     Uiso  ? Pb
Pb 1.0 0.51399881     0.50288594     0.50190259     Uiso  ? Pb
Pb 1.0 0.46903547     0.47979814     0.01519639     Uiso  ? Pb
Cs 1.0 0.96753796     0.49834153     0.22986777     Uiso  ? Cs
Cs 1.0 0.05571198     0.56073466     0.73765427     Uiso  ? Cs
Cs 1.0 0.49209119     0.04564339     0.77144624     Uiso  ? Cs
Cs 1.0 0.51118374     0.90378376     0.24584548     Uiso  ? Cs
I 1.0 0.19692281     0.32470555     0.53634071     Uiso  ? I
I 1.0 0.802992     0.70986765     0.45410096     Uiso  ? I
I 1.0 0.72882685     0.19461072     0.44720094     Uiso  ? I
I 1.0 0.31821297     0.78489918     0.56286949     Uiso  ? I
I 1.0 0.74245758     0.72961421     0.01834829     Uiso  ? I
I 1.0 0.15480202     0.30269068     0.96959283     Uiso  ? I
I 1.0 0.25861814     0.79639794     0.95957452     Uiso  ? I
I 1.0 0.70921196     0.23251251     0.04826082     Uiso  ? I
I 1.0 0.97052306     0.97991519     0.75247744     Uiso  ? I
I 1.0 0.07068258     0.00154423     0.25067792     Uiso  ? I
I 1.0 0.41880171     0.46610336     0.25532407     Uiso  ? I
I 1.0 0.59596324     0.48455874     0.75002603     Uiso  ? I
