
#======================================================================
# CRYSTAL DATA
#----------------------------------------------------------------------
data_VESTA_phase_1

_chemical_name_common                  ' struc4'
_cell_length_a                         8.6197900772
_cell_length_b                         8.8517599106
_cell_length_c                         12.5012798309
_cell_angle_alpha                      90.000000
_cell_angle_beta                       90.000000
_cell_angle_gamma                      90.000000
_cell_volume                           953.851554537
_space_group_name_H-M_alt              'P 1'
_space_group_IT_number                 1

loop_
_space_group_symop_operation_xyz
   'x, y, z'

loop_
   _atom_site_label
   _atom_site_occupancy
   _atom_site_fract_x
   _atom_site_fract_y
   _atom_site_fract_z
   _atom_site_adp_type
   _atom_site_U_iso_or_equiv
   _atom_site_type_symbol
Pb 1.0 0.99007313     0.00848696     0.99485413     Uiso  ? Pb
Pb 1.0 0.03209236     0.99850908     0.493434     Uiso  ? Pb
Pb 1.0 0.51325387     0.50458169     0.50322283     Uiso  ? Pb
Pb 1.0 0.46562201     0.47746695     0.01635928     Uiso  ? Pb
Cs 1.0 0.96837948     0.50234521     0.23141656     Uiso  ? Cs
Cs 1.0 0.05760534     0.55674449     0.7385036     Uiso  ? Cs
Cs 1.0 0.49003746     0.04999389     0.77158937     Uiso  ? Cs
Cs 1.0 0.51538839     0.9041973     0.24175485     Uiso  ? Cs
I 1.0 0.19708257     0.3209559     0.53733645     Uiso  ? I
I 1.0 0.8035067     0.70990402     0.45401982     Uiso  ? I
I 1.0 0.7289967     0.19502077     0.45113692     Uiso  ? I
I 1.0 0.31776281     0.78481427     0.56044985     Uiso  ? I
I 1.0 0.74255354     0.72738083     0.0196446     Uiso  ? I
I 1.0 0.15654819     0.30143864     0.96853919     Uiso  ? I
I 1.0 0.2600768     0.79706256     0.95669513     Uiso  ? I
I 1.0 0.71197179     0.23411193     0.0473493     Uiso  ? I
I 1.0 0.96996595     0.97632253     0.75184503     Uiso  ? I
I 1.0 0.07107673     0.00191008     0.25223248     Uiso  ? I
I 1.0 0.41443524     0.46862124     0.25333381     Uiso  ? I
I 1.0 0.59142795     0.48643589     0.75209376     Uiso  ? I
