
#======================================================================
# CRYSTAL DATA
#----------------------------------------------------------------------
data_VESTA_phase_1

_chemical_name_common                  ' struc4'
_cell_length_a                         8.6197900772
_cell_length_b                         8.8517599106
_cell_length_c                         12.5012798309
_cell_angle_alpha                      90.000000
_cell_angle_beta                       90.000000
_cell_angle_gamma                      90.000000
_cell_volume                           953.851554537
_space_group_name_H-M_alt              'P 1'
_space_group_IT_number                 1

loop_
_space_group_symop_operation_xyz
   'x, y, z'

loop_
   _atom_site_label
   _atom_site_occupancy
   _atom_site_fract_x
   _atom_site_fract_y
   _atom_site_fract_z
   _atom_site_adp_type
   _atom_site_U_iso_or_equiv
   _atom_site_type_symbol
Pb 1.0 0.9939194     0.0070755     0.99668689     Uiso  ? Pb
Pb 1.0 0.02991439     0.99933845     0.49059209     Uiso  ? Pb
Pb 1.0 0.51282306     0.50568872     0.50478382     Uiso  ? Pb
Pb 1.0 0.46256023     0.47566319     0.01702371     Uiso  ? Pb
Cs 1.0 0.9693574     0.5059001     0.23287398     Uiso  ? Cs
Cs 1.0 0.05874374     0.5530559     0.73967435     Uiso  ? Cs
Cs 1.0 0.48827284     0.05447417     0.77161787     Uiso  ? Cs
Cs 1.0 0.51953517     0.90503706     0.23785727     Uiso  ? Cs
I 1.0 0.1974679     0.31646944     0.53795614     Uiso  ? I
I 1.0 0.80415859     0.7101994     0.4541338     Uiso  ? I
I 1.0 0.72879093     0.19557747     0.45509383     Uiso  ? I
I 1.0 0.3174838     0.78522874     0.55784235     Uiso  ? I
I 1.0 0.74273613     0.72508593     0.02094346     Uiso  ? I
I 1.0 0.1590292     0.30100709     0.96737548     Uiso  ? I
I 1.0 0.26254624     0.79692383     0.95418156     Uiso  ? I
I 1.0 0.71417229     0.23536188     0.04652392     Uiso  ? I
I 1.0 0.96875371     0.97313827     0.75081401     Uiso  ? I
I 1.0 0.07184375     0.00219398     0.25334839     Uiso  ? I
I 1.0 0.40988008     0.47130152     0.25170148     Uiso  ? I
I 1.0 0.5868099     0.48814769     0.75407563     Uiso  ? I
