
#======================================================================
# CRYSTAL DATA
#----------------------------------------------------------------------
data_VESTA_phase_1

_chemical_name_common                  ' struc4'
_cell_length_a                         8.6197900772
_cell_length_b                         8.8517599106
_cell_length_c                         12.5012798309
_cell_angle_alpha                      90.000000
_cell_angle_beta                       90.000000
_cell_angle_gamma                      90.000000
_cell_volume                           953.851554537
_space_group_name_H-M_alt              'P 1'
_space_group_IT_number                 1

loop_
_space_group_symop_operation_xyz
   'x, y, z'

loop_
   _atom_site_label
   _atom_site_occupancy
   _atom_site_fract_x
   _atom_site_fract_y
   _atom_site_fract_z
   _atom_site_adp_type
   _atom_site_U_iso_or_equiv
   _atom_site_type_symbol
Pb 1.0 0.99764124     0.0046086     0.99898976     Uiso  ? Pb
Pb 1.0 0.02683561     0.00065626     0.48771368     Uiso  ? Pb
Pb 1.0 0.51266817     0.50626306     0.50692975     Uiso  ? Pb
Pb 1.0 0.45956031     0.47424278     0.01712214     Uiso  ? Pb
Cs 1.0 0.9706682     0.50952425     0.23446306     Uiso  ? Cs
Cs 1.0 0.05912639     0.5491349     0.74137635     Uiso  ? Cs
Cs 1.0 0.48654415     0.05996568     0.77143703     Uiso  ? Cs
Cs 1.0 0.5243723     0.90664609     0.23353311     Uiso  ? Cs
I 1.0 0.19838112     0.31032836     0.5382262     Uiso  ? I
I 1.0 0.80494622     0.71079877     0.45455292     Uiso  ? I
I 1.0 0.72798968     0.19646125     0.45980582     Uiso  ? I
I 1.0 0.31730516     0.78636295     0.55451578     Uiso  ? I
I 1.0 0.74325849     0.72234636     0.02243936     Uiso  ? I
I 1.0 0.16268556     0.30131056     0.96584615     Uiso  ? I
I 1.0 0.26682197     0.79571462     0.95166877     Uiso  ? I
I 1.0 0.71614032     0.23639466     0.04564638     Uiso  ? I
I 1.0 0.96648019     0.9698679     0.74930111     Uiso  ? I
I 1.0 0.07332834     0.00244417     0.25377466     Uiso  ? I
I 1.0 0.40423603     0.47470227     0.25052638     Uiso  ? I
I 1.0 0.58117171     0.49003577     0.75623304     Uiso  ? I
