
#======================================================================
# CRYSTAL DATA
#----------------------------------------------------------------------
data_VESTA_phase_1

_chemical_name_common                  ' struc4'
_cell_length_a                         8.6197900772
_cell_length_b                         8.8517599106
_cell_length_c                         12.5012798309
_cell_angle_alpha                      90.000000
_cell_angle_beta                       90.000000
_cell_angle_gamma                      90.000000
_cell_volume                           953.851554537
_space_group_name_H-M_alt              'P 1'
_space_group_IT_number                 1

loop_
_space_group_symop_operation_xyz
   'x, y, z'

loop_
   _atom_site_label
   _atom_site_occupancy
   _atom_site_fract_x
   _atom_site_fract_y
   _atom_site_fract_z
   _atom_site_adp_type
   _atom_site_U_iso_or_equiv
   _atom_site_type_symbol
Pb 1.0 0.99865579     0.00360415     0.99975217     Uiso  ? Pb
Pb 1.0 0.02570519     0.00115231     0.48692774     Uiso  ? Pb
Pb 1.0 0.51269142     0.50628268     0.50770129     Uiso  ? Pb
Pb 1.0 0.45876032     0.47395851     0.01698957     Uiso  ? Pb
Cs 1.0 0.97112827     0.51056975     0.23495105     Uiso  ? Cs
Cs 1.0 0.05902213     0.54796314     0.74198575     Uiso  ? Cs
Cs 1.0 0.48606066     0.06181193     0.77131433     Uiso  ? Cs
Cs 1.0 0.52594156     0.90733663     0.23218921     Uiso  ? Cs
I 1.0 0.1988254     0.30814971     0.53821464     Uiso  ? I
I 1.0 0.80517453     0.71103428     0.45476432     Uiso  ? I
I 1.0 0.72757451     0.19681329     0.46136138     Uiso  ? I
I 1.0 0.31727105     0.78688764     0.55336489     Uiso  ? I
I 1.0 0.74354842     0.72145214     0.02290996     Uiso  ? I
I 1.0 0.16399375     0.30153076     0.96530763     Uiso  ? I
I 1.0 0.26854023     0.79508268     0.95095151     Uiso  ? I
I 1.0 0.71665446     0.23661857     0.04538123     Uiso  ? I
I 1.0 0.96553565     0.9689103     0.74877592     Uiso  ? I
I 1.0 0.0739719     0.00250917     0.25363944     Uiso  ? I
I 1.0 0.40232838     0.47588088     0.25036401     Uiso  ? I
I 1.0 0.57927417     0.49063596     0.75688349     Uiso  ? I
