
#======================================================================
# CRYSTAL DATA
#----------------------------------------------------------------------
data_VESTA_phase_1

_chemical_name_common                  ' struc4'
_cell_length_a                         8.6197900772
_cell_length_b                         8.8517599106
_cell_length_c                         12.5012798309
_cell_angle_alpha                      90.000000
_cell_angle_beta                       90.000000
_cell_angle_gamma                      90.000000
_cell_volume                           953.851554537
_space_group_name_H-M_alt              'P 1'
_space_group_IT_number                 1

loop_
_space_group_symop_operation_xyz
   'x, y, z'

loop_
   _atom_site_label
   _atom_site_occupancy
   _atom_site_fract_x
   _atom_site_fract_y
   _atom_site_fract_z
   _atom_site_adp_type
   _atom_site_U_iso_or_equiv
   _atom_site_type_symbol
Pb 1.0 0.00035234     0.00133779     0.00123188     Uiso  ? Pb
Pb 1.0 0.02330007     0.00219664     0.48566217     Uiso  ? Pb
Pb 1.0 0.51282949     0.5060876     0.50931204     Uiso  ? Pb
Pb 1.0 0.45750489     0.47368644     0.01650041     Uiso  ? Pb
Cs 1.0 0.97206644     0.51241125     0.23586643     Uiso  ? Cs
Cs 1.0 0.05847769     0.54582912     0.74322286     Uiso  ? Cs
Cs 1.0 0.48522834     0.06551661     0.77096355     Uiso  ? Cs
Cs 1.0 0.52900099     0.90895289     0.22965756     Uiso  ? Cs
I 1.0 0.19995479     0.30367376     0.5380617     Uiso  ? I
I 1.0 0.8055338     0.71152684     0.45529725     Uiso  ? I
I 1.0 0.72650493     0.19760749     0.46444467     Uiso  ? I
I 1.0 0.31722535     0.78814384     0.55100566     Uiso  ? I
I 1.0 0.7443632     0.71970981     0.02379028     Uiso  ? I
I 1.0 0.1666267     0.30201235     0.96419292     Uiso  ? I
I 1.0 0.2723627     0.79352689     0.94969078     Uiso  ? I
I 1.0 0.71750921     0.236872     0.04489086     Uiso  ? I
I 1.0 0.9633811     0.96718511     0.74774607     Uiso  ? I
I 1.0 0.07549669     0.00261644     0.25290667     Uiso  ? I
I 1.0 0.39850932     0.47831299     0.25040229     Uiso  ? I
I 1.0 0.57546127     0.49180984     0.75807278     Uiso  ? I
