
#======================================================================
# CRYSTAL DATA
#----------------------------------------------------------------------
data_VESTA_phase_1

_chemical_name_common                  ' struc4'
_cell_length_a                         8.6197900772
_cell_length_b                         8.8517599106
_cell_length_c                         12.5012798309
_cell_angle_alpha                      90.000000
_cell_angle_beta                       90.000000
_cell_angle_gamma                      90.000000
_cell_volume                           953.851554537
_space_group_name_H-M_alt              'P 1'
_space_group_IT_number                 1

loop_
_space_group_symop_operation_xyz
   'x, y, z'

loop_
   _atom_site_label
   _atom_site_occupancy
   _atom_site_fract_x
   _atom_site_fract_y
   _atom_site_fract_z
   _atom_site_adp_type
   _atom_site_U_iso_or_equiv
   _atom_site_type_symbol
Pb 1.0 0.00070905     0.00071994     0.00158819     Uiso  ? Pb
Pb 1.0 0.02267044     0.00246423     0.48541298     Uiso  ? Pb
Pb 1.0 0.51288041     0.50599328     0.50972637     Uiso  ? Pb
Pb 1.0 0.45726765     0.47368141     0.016336     Uiso  ? Pb
Cs 1.0 0.97230237     0.51281907     0.23608307     Uiso  ? Cs
Cs 1.0 0.05827281     0.54534032     0.74353008     Uiso  ? Cs
Cs 1.0 0.48504772     0.06644441     0.77085255     Uiso  ? Cs
Cs 1.0 0.52974665     0.90940648     0.22905992     Uiso  ? Cs
I 1.0 0.20029066     0.30253997     0.53799998     Uiso  ? I
I 1.0 0.80559829     0.71165085     0.45545358     Uiso  ? I
I 1.0 0.72618504     0.19782461     0.46520887     Uiso  ? I
I 1.0 0.31721758     0.78849826     0.55040413     Uiso  ? I
I 1.0 0.74462353     0.71928629     0.02399532     Uiso  ? I
I 1.0 0.16727384     0.30212404     0.96390744     Uiso  ? I
I 1.0 0.27339064     0.79308456     0.94941092     Uiso  ? I
I 1.0 0.71769213     0.23689249     0.04477615     Uiso  ? I
I 1.0 0.96278913     0.96679238     0.74749763     Uiso  ? I
I 1.0 0.07592886     0.00263905     0.25262565     Uiso  ? I
I 1.0 0.39755937     0.4789371     0.2504863     Uiso  ? I
I 1.0 0.57450553     0.49210001     0.7583465     Uiso  ? I
