
#======================================================================
# CRYSTAL DATA
#----------------------------------------------------------------------
data_VESTA_phase_1

_chemical_name_common                  ' struc4'
_cell_length_a                         8.6197900772
_cell_length_b                         8.8517599106
_cell_length_c                         12.5012798309
_cell_angle_alpha                      90.000000
_cell_angle_beta                       90.000000
_cell_angle_gamma                      90.000000
_cell_volume                           953.851554537
_space_group_name_H-M_alt              'P 1'
_space_group_IT_number                 1

loop_
_space_group_symop_operation_xyz
   'x, y, z'

loop_
   _atom_site_label
   _atom_site_occupancy
   _atom_site_fract_x
   _atom_site_fract_y
   _atom_site_fract_z
   _atom_site_adp_type
   _atom_site_U_iso_or_equiv
   _atom_site_type_symbol
Pb 1.0 0.00103958     8.247e-05     0.00193771     Uiso  ? Pb
Pb 1.0 0.02203021     0.00273292     0.48519136     Uiso  ? Pb
Pb 1.0 0.51293698     0.50588207     0.51014446     Uiso  ? Pb
Pb 1.0 0.4570625     0.47370189     0.0161566     Uiso  ? Pb
Cs 1.0 0.97253796     0.51320556     0.23629472     Uiso  ? Cs
Cs 1.0 0.05804088     0.54486985     0.74383451     Uiso  ? Cs
Cs 1.0 0.48487786     0.06737172     0.77073181     Uiso  ? Cs
Cs 1.0 0.53048353     0.90988011     0.22847747     Uiso  ? Cs
I 1.0 0.20064898     0.30140393     0.53793035     Uiso  ? I
I 1.0 0.80565099     0.7117738     0.45561915     Uiso  ? I
I 1.0 0.72584343     0.19804916     0.46597004     Uiso  ? I
I 1.0 0.31721106     0.78886805     0.54979799     Uiso  ? I
I 1.0 0.74490892     0.71886848     0.02419357     Uiso  ? I
I 1.0 0.16791189     0.30222631     0.96361979     Uiso  ? I
I 1.0 0.27444423     0.79262366     0.94914475     Uiso  ? I
I 1.0 0.71786461     0.23689499     0.04466438     Uiso  ? I
I 1.0 0.96217662     0.96641463     0.74725398     Uiso  ? I
I 1.0 0.07638154     0.00266027     0.25230604     Uiso  ? I
I 1.0 0.39661367     0.47956775     0.2505991     Uiso  ? I
I 1.0 0.57354926     0.49238967     0.75861076     Uiso  ? I
