
#======================================================================
# CRYSTAL DATA
#----------------------------------------------------------------------
data_VESTA_phase_1

_chemical_name_common                  ' struc4'
_cell_length_a                         8.6197900772
_cell_length_b                         8.8517599106
_cell_length_c                         12.5012798309
_cell_angle_alpha                      90.000000
_cell_angle_beta                       90.000000
_cell_angle_gamma                      90.000000
_cell_volume                           953.851554537
_space_group_name_H-M_alt              'P 1'
_space_group_IT_number                 1

loop_
_space_group_symop_operation_xyz
   'x, y, z'

loop_
   _atom_site_label
   _atom_site_occupancy
   _atom_site_fract_x
   _atom_site_fract_y
   _atom_site_fract_z
   _atom_site_adp_type
   _atom_site_U_iso_or_equiv
   _atom_site_type_symbol
Pb 1.0 0.00316657     0.98938554     0.00573126     Uiso  ? Pb
Pb 1.0 0.01222335     0.00617609     0.48489093     Uiso  ? Pb
Pb 1.0 0.51397506     0.50300595     0.51607432     Uiso  ? Pb
Pb 1.0 0.4577251     0.47660713     0.01275927     Uiso  ? Pb
Cs 1.0 0.97544482     0.51630948     0.23874435     Uiso  ? Cs
Cs 1.0 0.05204895     0.54029824     0.74738131     Uiso  ? Cs
Cs 1.0 0.483531     0.07995223     0.76796582     Uiso  ? Cs
Cs 1.0 0.53967587     0.91872031     0.22212428     Uiso  ? Cs
I 1.0 0.20825932     0.28615923     0.53653905     Uiso  ? I
I 1.0 0.80479662     0.71299677     0.45886591     Uiso  ? I
I 1.0 0.71870458     0.20198654     0.47620491     Uiso  ? I
I 1.0 0.31717771     0.7954455     0.54084312     Uiso  ? I
I 1.0 0.75209511     0.71377285     0.02607871     Uiso  ? I
I 1.0 0.17492166     0.30127857     0.95947793     Uiso  ? I
I 1.0 0.29092743     0.78515185     0.94670906     Uiso  ? I
I 1.0 0.71967109     0.23482338     0.04336237     Uiso  ? I
I 1.0 0.95167703     0.96256658     0.74450767     Uiso  ? I
I 1.0 0.08478801     0.00282824     0.24451882     Uiso  ? I
I 1.0 0.38456884     0.48908571     0.25464919     Uiso  ? I
I 1.0 0.56039491     0.4965456     0.7613852     Uiso  ? I
