
#======================================================================
# CRYSTAL DATA
#----------------------------------------------------------------------
data_VESTA_phase_1

_chemical_name_common                  ' struc4'
_cell_length_a                         8.6197900772
_cell_length_b                         8.8517599106
_cell_length_c                         12.5012798309
_cell_angle_alpha                      90.000000
_cell_angle_beta                       90.000000
_cell_angle_gamma                      90.000000
_cell_volume                           953.851554537
_space_group_name_H-M_alt              'P 1'
_space_group_IT_number                 1

loop_
_space_group_symop_operation_xyz
   'x, y, z'

loop_
   _atom_site_label
   _atom_site_occupancy
   _atom_site_fract_x
   _atom_site_fract_y
   _atom_site_fract_z
   _atom_site_adp_type
   _atom_site_U_iso_or_equiv
   _atom_site_type_symbol
Pb 1.0 0.00315862     0.98851702     0.00589696     Uiso  ? Pb
Pb 1.0 0.01148623     0.00636972     0.48505008     Uiso  ? Pb
Pb 1.0 0.51403946     0.50274357     0.51647584     Uiso  ? Pb
Pb 1.0 0.45802008     0.47698327     0.01250596     Uiso  ? Pb
Cs 1.0 0.97559561     0.51636177     0.23888471     Uiso  ? Cs
Cs 1.0 0.05143405     0.54012086     0.74755632     Uiso  ? Cs
Cs 1.0 0.48350094     0.08079416     0.76769139     Uiso  ? Cs
Cs 1.0 0.54023804     0.91950066     0.22180763     Uiso  ? Cs
I 1.0 0.20899268     0.28517526     0.53643762     Uiso  ? I
I 1.0 0.80460609     0.71302555     0.45915831     Uiso  ? I
I 1.0 0.71803099     0.20232007     0.47689874     Uiso  ? I
I 1.0 0.31717507     0.79599708     0.5401761     Uiso  ? I
I 1.0 0.75285998     0.71346611     0.0261412     Uiso  ? I
I 1.0 0.17524826     0.30097417     0.95918531     Uiso  ? I
I 1.0 0.29214945     0.78462185     0.94661555     Uiso  ? I
I 1.0 0.71978907     0.23451194     0.04328469     Uiso  ? I
I 1.0 0.95081007     0.96238766     0.74435763     Uiso  ? I
I 1.0 0.08552353     0.0028315     0.24381132     Uiso  ? I
I 1.0 0.38385928     0.48981645     0.25506462     Uiso  ? I
I 1.0 0.55949631     0.49686141     0.76152722     Uiso  ? I
