
#======================================================================
# CRYSTAL DATA
#----------------------------------------------------------------------
data_VESTA_phase_1

_chemical_name_common                  ' struc4'
_cell_length_a                         8.6197900772
_cell_length_b                         8.8517599106
_cell_length_c                         12.5012798309
_cell_angle_alpha                      90.000000
_cell_angle_beta                       90.000000
_cell_angle_gamma                      90.000000
_cell_volume                           953.851554537
_space_group_name_H-M_alt              'P 1'
_space_group_IT_number                 1

loop_
_space_group_symop_operation_xyz
   'x, y, z'

loop_
   _atom_site_label
   _atom_site_occupancy
   _atom_site_fract_x
   _atom_site_fract_y
   _atom_site_fract_z
   _atom_site_adp_type
   _atom_site_U_iso_or_equiv
   _atom_site_type_symbol
Pb 1.0 0.0027417     0.98312614     0.00650457     Uiso  ? Pb
Pb 1.0 0.00706888     0.00729279     0.48641001     Uiso  ? Pb
Pb 1.0 0.51428865     0.50116547     0.51870633     Uiso  ? Pb
Pb 1.0 0.4603819     0.47955948     0.0111377     Uiso  ? Pb
Cs 1.0 0.97623404     0.51618566     0.23964624     Uiso  ? Cs
Cs 1.0 0.04728102     0.53947592     0.74830695     Uiso  ? Cs
Cs 1.0 0.48347367     0.08555907     0.76584632     Uiso  ? Cs
Cs 1.0 0.54329736     0.92452214     0.22031399     Uiso  ? Cs
I 1.0 0.21386534     0.27972925     0.53589938     Uiso  ? I
I 1.0 0.80309778     0.71297362     0.46104378     Uiso  ? I
I 1.0 0.71360528     0.20440757     0.48092388     Uiso  ? I
I 1.0 0.31712699     0.7994647     0.53614218     Uiso  ? I
I 1.0 0.75813905     0.71176213     0.02630119     Uiso  ? I
I 1.0 0.17675955     0.29841615     0.95749276     Uiso  ? I
I 1.0 0.29929488     0.78176605     0.9462281     Uiso  ? I
I 1.0 0.72056875     0.23216549     0.0428451     Uiso  ? I
I 1.0 0.94535778     0.96156024     0.7435392     Uiso  ? I
I 1.0 0.09024626     0.00283623     0.23955582     Uiso  ? I
I 1.0 0.38028207     0.49433556     0.25770565     Uiso  ? I
I 1.0 0.55433242     0.49884822     0.76227387     Uiso  ? I
