
#======================================================================
# CRYSTAL DATA
#----------------------------------------------------------------------
data_VESTA_phase_1

_chemical_name_common                  ' struc4'
_cell_length_a                         8.6197900772
_cell_length_b                         8.8517599106
_cell_length_c                         12.5012798309
_cell_angle_alpha                      90.000000
_cell_angle_beta                       90.000000
_cell_angle_gamma                      90.000000
_cell_volume                           953.851554537
_space_group_name_H-M_alt              'P 1'
_space_group_IT_number                 1

loop_
_space_group_symop_operation_xyz
   'x, y, z'

loop_
   _atom_site_label
   _atom_site_occupancy
   _atom_site_fract_x
   _atom_site_fract_y
   _atom_site_fract_z
   _atom_site_adp_type
   _atom_site_U_iso_or_equiv
   _atom_site_type_symbol
Pb 1.0 0.00216355     0.97944506     0.00650567     Uiso  ? Pb
Pb 1.0 0.0041933     0.0076496     0.48765029     Uiso  ? Pb
Pb 1.0 0.51426352     0.50019477     0.51996647     Uiso  ? Pb
Pb 1.0 0.46242825     0.48145878     0.0104433     Uiso  ? Pb
Cs 1.0 0.97636326     0.51559346     0.24008898     Uiso  ? Cs
Cs 1.0 0.04409936     0.5394261     0.74850425     Uiso  ? Cs
Cs 1.0 0.48358089     0.08839006     0.76443521     Uiso  ? Cs
Cs 1.0 0.54501636     0.92814263     0.21971549     Uiso  ? Cs
I 1.0 0.21749637     0.27658123     0.53563423     Uiso  ? I
I 1.0 0.80177371     0.71271203     0.46239828     Uiso  ? I
I 1.0 0.71036327     0.20582105     0.48344861     Uiso  ? I
I 1.0 0.31703918     0.80190182     0.53344432     Uiso  ? I
I 1.0 0.76223844     0.71071368     0.0262121     Uiso  ? I
I 1.0 0.17744872     0.2960793     0.95645547     Uiso  ? I
I 1.0 0.30373278     0.78032509     0.94610531     Uiso  ? I
I 1.0 0.72119131     0.23016022     0.04256623     Uiso  ? I
I 1.0 0.94152808     0.96123257     0.74303848     Uiso  ? I
I 1.0 0.09364694     0.00283922     0.23691426     Uiso  ? I
I 1.0 0.37866297     0.49745681     0.25951804     Uiso  ? I
I 1.0 0.55117744     0.50026971     0.76269932     Uiso  ? I
