
#======================================================================
# CRYSTAL DATA
#----------------------------------------------------------------------
data_VESTA_phase_1

_chemical_name_common                  ' struc4'
_cell_length_a                         8.6197900772
_cell_length_b                         8.8517599106
_cell_length_c                         12.5012798309
_cell_angle_alpha                      90.000000
_cell_angle_beta                       90.000000
_cell_angle_gamma                      90.000000
_cell_volume                           953.851554537
_space_group_name_H-M_alt              'P 1'
_space_group_IT_number                 1

loop_
_space_group_symop_operation_xyz
   'x, y, z'

loop_
   _atom_site_label
   _atom_site_occupancy
   _atom_site_fract_x
   _atom_site_fract_y
   _atom_site_fract_z
   _atom_site_adp_type
   _atom_site_U_iso_or_equiv
   _atom_site_type_symbol
Pb 1.0 0.00140994     0.97578638     0.0061633     Uiso  ? Pb
Pb 1.0 0.0014379     0.00778258     0.48910949     Uiso  ? Pb
Pb 1.0 0.51402353     0.49937515     0.52099687     Uiso  ? Pb
Pb 1.0 0.46474695     0.48336757     0.00998203     Uiso  ? Pb
Cs 1.0 0.9762282     0.51461702     0.24049619     Uiso  ? Cs
Cs 1.0 0.04063792     0.53964798     0.74845783     Uiso  ? Cs
Cs 1.0 0.48376806     0.09087973     0.76289313     Uiso  ? Cs
Cs 1.0 0.54646426     0.93191226     0.21944032     Uiso  ? Cs
I 1.0 0.22132967     0.27384243     0.53546037     Uiso  ? I
I 1.0 0.80024334     0.7122743     0.46379777     Uiso  ? I
I 1.0 0.70699333     0.20717269     0.4858163     Uiso  ? I
I 1.0 0.31687635     0.80441017     0.53076681     Uiso  ? I
I 1.0 0.76667706     0.70966508     0.02598189     Uiso  ? I
I 1.0 0.17802114     0.29335152     0.95551358     Uiso  ? I
I 1.0 0.30777407     0.77939942     0.94606011     Uiso  ? I
I 1.0 0.72191576     0.22783928     0.04228627     Uiso  ? I
I 1.0 0.93758327     0.96107743     0.74254207     Uiso  ? I
I 1.0 0.09720188     0.00285138     0.23460208     Uiso  ? I
I 1.0 0.37775564     0.50064482     0.26128774     Uiso  ? I
I 1.0 0.54831708     0.50177758     0.76309222     Uiso  ? I
