
#======================================================================
# CRYSTAL DATA
#----------------------------------------------------------------------
data_VESTA_phase_1

_chemical_name_common                  ' struc4'
_cell_length_a                         8.6197900772
_cell_length_b                         8.8517599106
_cell_length_c                         12.5012798309
_cell_angle_alpha                      90.000000
_cell_angle_beta                       90.000000
_cell_angle_gamma                      90.000000
_cell_volume                           953.851554537
_space_group_name_H-M_alt              'P 1'
_space_group_IT_number                 1

loop_
_space_group_symop_operation_xyz
   'x, y, z'

loop_
   _atom_site_label
   _atom_site_occupancy
   _atom_site_fract_x
   _atom_site_fract_y
   _atom_site_fract_z
   _atom_site_adp_type
   _atom_site_U_iso_or_equiv
   _atom_site_type_symbol
Pb 1.0 0.00077425     0.97311137     0.00568052     Uiso  ? Pb
Pb 1.0 0.99948191     0.00773496     0.49032518     Uiso  ? Pb
Pb 1.0 0.51367289     0.4989019     0.52159936     Uiso  ? Pb
Pb 1.0 0.46661003     0.48473378     0.00980953     Uiso  ? Pb
Cs 1.0 0.97595251     0.51363116     0.24078809     Uiso  ? Cs
Cs 1.0 0.03789118     0.53996986     0.74826981     Uiso  ? Cs
Cs 1.0 0.48395229     0.09249794     0.76166359     Uiso  ? Cs
Cs 1.0 0.54736921     0.93479446     0.21944475     Uiso  ? Cs
I 1.0 0.22426541     0.27205633     0.53539445     Uiso  ? I
I 1.0 0.79899428     0.71184232     0.46485859     Uiso  ? I
I 1.0 0.70444942     0.20809761     0.48747811     Uiso  ? I
I 1.0 0.31668901     0.8063272     0.5287859     Uiso  ? I
I 1.0 0.77013737     0.70882557     0.02572901     Uiso  ? I
I 1.0 0.17845007     0.29112663     0.95487854     Uiso  ? I
I 1.0 0.31048369     0.77910555     0.94606331     Uiso  ? I
I 1.0 0.72253108     0.22591919     0.04206653     Uiso  ? I
I 1.0 0.93456952     0.96107031     0.74215737     Uiso  ? I
I 1.0 0.09993901     0.00286719     0.23314599     Uiso  ? I
I 1.0 0.3775725     0.50307094     0.26255111     Uiso  ? I
I 1.0 0.54639394     0.50296695     0.76337377     Uiso  ? I
