
#======================================================================
# CRYSTAL DATA
#----------------------------------------------------------------------
data_VESTA_phase_1

_chemical_name_common                  ' struc4'
_cell_length_a                         8.6197900772
_cell_length_b                         8.8517599106
_cell_length_c                         12.5012798309
_cell_angle_alpha                      90.000000
_cell_angle_beta                       90.000000
_cell_angle_gamma                      90.000000
_cell_volume                           953.851554537
_space_group_name_H-M_alt              'P 1'
_space_group_IT_number                 1

loop_
_space_group_symop_operation_xyz
   'x, y, z'

loop_
   _atom_site_label
   _atom_site_occupancy
   _atom_site_fract_x
   _atom_site_fract_y
   _atom_site_fract_z
   _atom_site_adp_type
   _atom_site_U_iso_or_equiv
   _atom_site_type_symbol
Pb 1.0 0.00055616     0.97224135     0.00547766     Uiso  ? Pb
Pb 1.0 0.99885493     0.00769153     0.49075053     Uiso  ? Pb
Pb 1.0 0.51351972     0.49877651     0.52176566     Uiso  ? Pb
Pb 1.0 0.46724751     0.48516769     0.0097869     Uiso  ? Pb
Cs 1.0 0.97582863     0.51325401     0.24088419     Uiso  ? Cs
Cs 1.0 0.0369516     0.54010307     0.74817938     Uiso  ? Cs
Cs 1.0 0.4840211     0.09298778     0.76124191     Uiso  ? Cs
Cs 1.0 0.5476364     0.93575971     0.21948591     Uiso  ? Cs
I 1.0 0.22524463     0.27151009     0.53538491     Uiso  ? I
I 1.0 0.79856413     0.71168081     0.465212     Uiso  ? I
I 1.0 0.7036074     0.2083824     0.48800892     Uiso  ? I
I 1.0 0.31661236     0.80697133     0.52813252     Uiso  ? I
I 1.0 0.77130257     0.70852685     0.0256315     Uiso  ? I
I 1.0 0.17860253     0.29036229     0.95468129     Uiso  ? I
I 1.0 0.31131969     0.77909035     0.94606979     Uiso  ? I
I 1.0 0.72275043     0.22524878     0.04199002     Uiso  ? I
I 1.0 0.93355679     0.96108796     0.74202544     Uiso  ? I
I 1.0 0.10085941     0.00287391     0.23271913     Uiso  ? I
I 1.0 0.37760842     0.50388559     0.26295594     Uiso  ? I
I 1.0 0.5457978     0.50337472     0.76346599     Uiso  ? I
