
#======================================================================
# CRYSTAL DATA
#----------------------------------------------------------------------
data_VESTA_phase_1

_chemical_name_common                  ' struc4'
_cell_length_a                         8.6197900772
_cell_length_b                         8.8517599106
_cell_length_c                         12.5012798309
_cell_angle_alpha                      90.000000
_cell_angle_beta                       90.000000
_cell_angle_gamma                      90.000000
_cell_volume                           953.851554537
_space_group_name_H-M_alt              'P 1'
_space_group_IT_number                 1

loop_
_space_group_symop_operation_xyz
   'x, y, z'

loop_
   _atom_site_label
   _atom_site_occupancy
   _atom_site_fract_x
   _atom_site_fract_y
   _atom_site_fract_z
   _atom_site_adp_type
   _atom_site_U_iso_or_equiv
   _atom_site_type_symbol
Pb 1.0 0.9999046     0.96972135     0.00474931     Uiso  ? Pb
Pb 1.0 0.99705796     0.00748126     0.49207903     Uiso  ? Pb
Pb 1.0 0.5129419     0.49851089     0.52215766     Uiso  ? Pb
Pb 1.0 0.46919203     0.48638474     0.00982632     Uiso  ? Pb
Cs 1.0 0.97536677     0.51197639     0.24117299     Uiso  ? Cs
Cs 1.0 0.03407254     0.54057023     0.74782972     Uiso  ? Cs
Cs 1.0 0.48424553     0.09430204     0.75994908     Uiso  ? Cs
Cs 1.0 0.54833767     0.93865729     0.21972745     Uiso  ? Cs
I 1.0 0.22815412     0.27000911     0.53539354     Uiso  ? I
I 1.0 0.79724692     0.71115026     0.46626588     Uiso  ? I
I 1.0 0.70112488     0.20915068     0.48952739     Uiso  ? I
I 1.0 0.31633562     0.80891529     0.52619638     Uiso  ? I
I 1.0 0.77479616     0.70754822     0.02530574     Uiso  ? I
I 1.0 0.17911147     0.28802979     0.9541313     Uiso  ? I
I 1.0 0.31361483     0.77930377     0.94610272     Uiso  ? I
I 1.0 0.72345086     0.22315706     0.04174656     Uiso  ? I
I 1.0 0.93049997     0.9612003     0.74161685     Uiso  ? I
I 1.0 0.10363072     0.00289758     0.23162036     Uiso  ? I
I 1.0 0.37800754     0.50634336     0.26411163     Uiso  ? I
I 1.0 0.54414874     0.50463194     0.76373951     Uiso  ? I
