
#======================================================================
# CRYSTAL DATA
#----------------------------------------------------------------------
data_VESTA_phase_1

_chemical_name_common                  ' struc4'
_cell_length_a                         8.6197900772
_cell_length_b                         8.8517599106
_cell_length_c                         12.5012798309
_cell_angle_alpha                      90.000000
_cell_angle_beta                       90.000000
_cell_angle_gamma                      90.000000
_cell_volume                           953.851554537
_space_group_name_H-M_alt              'P 1'
_space_group_IT_number                 1

loop_
_space_group_symop_operation_xyz
   'x, y, z'

loop_
   _atom_site_label
   _atom_site_occupancy
   _atom_site_fract_x
   _atom_site_fract_y
   _atom_site_fract_z
   _atom_site_adp_type
   _atom_site_U_iso_or_equiv
   _atom_site_type_symbol
Pb 1.0 0.99969388     0.96891735     0.00446857     Uiso  ? Pb
Pb 1.0 0.99648903     0.00738525     0.49253737     Uiso  ? Pb
Pb 1.0 0.51270786     0.49846202     0.52225219     Uiso  ? Pb
Pb 1.0 0.46984723     0.48675805     0.00987547     Uiso  ? Pb
Cs 1.0 0.97518471     0.51150151     0.24127039     Uiso  ? Cs
Cs 1.0 0.03309401     0.54074579     0.74768826     Uiso  ? Cs
Cs 1.0 0.48432548     0.094687     0.75951087     Uiso  ? Cs
Cs 1.0 0.54853844     0.93962095     0.21984694     Uiso  ? Cs
I 1.0 0.2291072     0.26955234     0.53540887     Uiso  ? I
I 1.0 0.79680266     0.71096012     0.46661363     Uiso  ? I
I 1.0 0.70031725     0.20937451     0.49000766     Uiso  ? I
I 1.0 0.31622684     0.80956602     0.5255602     Uiso  ? I
I 1.0 0.77595226     0.70718777     0.02518745     Uiso  ? I
I 1.0 0.17930324     0.28724605     0.95396122     Uiso  ? I
I 1.0 0.31430741     0.77946265     0.94611786     Uiso  ? I
I 1.0 0.72369784     0.22243636     0.04165972     Uiso  ? I
I 1.0 0.92947633     0.96125715     0.7414763     Uiso  ? I
I 1.0 0.1045544     0.00290671     0.23131505     Uiso  ? I
I 1.0 0.37823701     0.50716649     0.26447509     Uiso  ? I
I 1.0 0.54364615     0.50506206     0.76383016     Uiso  ? I
