
#======================================================================
# CRYSTAL DATA
#----------------------------------------------------------------------
data_VESTA_phase_1

_chemical_name_common                  ' struc4'
_cell_length_a                         8.6197900772
_cell_length_b                         8.8517599106
_cell_length_c                         12.5012798309
_cell_angle_alpha                      90.000000
_cell_angle_beta                       90.000000
_cell_angle_gamma                      90.000000
_cell_volume                           953.851554537
_space_group_name_H-M_alt              'P 1'
_space_group_IT_number                 1

loop_
_space_group_symop_operation_xyz
   'x, y, z'

loop_
   _atom_site_label
   _atom_site_occupancy
   _atom_site_fract_x
   _atom_site_fract_y
   _atom_site_fract_z
   _atom_site_adp_type
   _atom_site_U_iso_or_equiv
   _atom_site_type_symbol
Pb 1.0 0.00255166     0.01326806     0.00881645     Uiso  ? Pb
Pb 1.0 0.99759092     0.99893988     0.49249179     Uiso  ? Pb
Pb 1.0 0.51029569     0.49907685     0.49875974     Uiso  ? Pb
Pb 1.0 0.49785959     0.51983057     0.99212542     Uiso  ? Pb
Cs 1.0 0.99330684     0.45013531     0.25506422     Uiso  ? Cs
Cs 1.0 0.01342529     0.5855529     0.75123676     Uiso  ? Cs
Cs 1.0 0.50469102     0.027891     0.74652709     Uiso  ? Cs
Cs 1.0 0.5244024     0.9554499     0.25153128     Uiso  ? Cs
I 1.0 0.20996994     0.31165763     0.51567533     Uiso  ? I
I 1.0 0.81240938     0.68844178     0.47589602     Uiso  ? I
I 1.0 0.70978046     0.19595184     0.46922566     Uiso  ? I
I 1.0 0.30403594     0.79913253     0.54405092     Uiso  ? I
I 1.0 0.81710711     0.68655629     0.02745878     Uiso  ? I
I 1.0 0.17528966     0.28871503     0.95261854     Uiso  ? I
I 1.0 0.29045695     0.7776153     0.98378848     Uiso  ? I
I 1.0 0.69921764     0.18858682     0.03313663     Uiso  ? I
I 1.0 0.90765892     0.02221893     0.74709137     Uiso  ? I
I 1.0 0.05198895     0.99749952     0.25248183     Uiso  ? I
I 1.0 0.41942688     0.50216578     0.25056911     Uiso  ? I
I 1.0 0.55159177     0.47072731     0.75618808     Uiso  ? I
