
#======================================================================
# CRYSTAL DATA
#----------------------------------------------------------------------
data_VESTA_phase_1

_chemical_name_common                  ' struc4'
_cell_length_a                         8.6197900772
_cell_length_b                         8.8517599106
_cell_length_c                         12.5012798309
_cell_angle_alpha                      90.000000
_cell_angle_beta                       90.000000
_cell_angle_gamma                      90.000000
_cell_volume                           953.851554537
_space_group_name_H-M_alt              'P 1'
_space_group_IT_number                 1

loop_
_space_group_symop_operation_xyz
   'x, y, z'

loop_
   _atom_site_label
   _atom_site_occupancy
   _atom_site_fract_x
   _atom_site_fract_y
   _atom_site_fract_z
   _atom_site_adp_type
   _atom_site_U_iso_or_equiv
   _atom_site_type_symbol
Pb 1.0 0.99929234     0.96737374     0.00385414     Uiso  ? Pb
Pb 1.0 0.99539979     0.00715604     0.49347359     Uiso  ? Pb
Pb 1.0 0.51217457     0.49842838     0.5223865     Uiso  ? Pb
Pb 1.0 0.47116212     0.48744997     0.01002792     Uiso  ? Pb
Cs 1.0 0.97478251     0.51047782     0.2414687     Uiso  ? Cs
Cs 1.0 0.03111153     0.54112197     0.74737058     Uiso  ? Cs
Cs 1.0 0.48449155     0.09537549     0.75862712     Uiso  ? Cs
Cs 1.0 0.54889124     0.94153997     0.2201437     Uiso  ? Cs
I 1.0 0.2309755     0.26869943     0.53545794     Uiso  ? I
I 1.0 0.79591304     0.71056333     0.46730119     Uiso  ? I
I 1.0 0.69874164     0.20976773     0.49092733     Uiso  ? I
I 1.0 0.31598251     0.81086998     0.52430374     Uiso  ? I
I 1.0 0.778235     0.70640314     0.02493863     Uiso  ? I
I 1.0 0.17972819     0.28568077     0.95363914     Uiso  ? I
I 1.0 0.31558302     0.77991284     0.94615433     Uiso  ? I
I 1.0 0.72421014     0.22096788     0.04147559     Uiso  ? I
I 1.0 0.92742528     0.9613991     0.74118986     Uiso  ? I
I 1.0 0.1063941     0.00292605     0.23079456     Uiso  ? I
I 1.0 0.3788383     0.5088172     0.26516574     Uiso  ? I
I 1.0 0.54271374     0.50593791     0.76401128     Uiso  ? I
