
#======================================================================
# CRYSTAL DATA
#----------------------------------------------------------------------
data_VESTA_phase_1

_chemical_name_common                  ' struc4'
_cell_length_a                         8.6197900772
_cell_length_b                         8.8517599106
_cell_length_c                         12.5012798309
_cell_angle_alpha                      90.000000
_cell_angle_beta                       90.000000
_cell_angle_gamma                      90.000000
_cell_volume                           953.851554537
_space_group_name_H-M_alt              'P 1'
_space_group_IT_number                 1

loop_
_space_group_symop_operation_xyz
   'x, y, z'

loop_
   _atom_site_label
   _atom_site_occupancy
   _atom_site_fract_x
   _atom_site_fract_y
   _atom_site_fract_z
   _atom_site_adp_type
   _atom_site_U_iso_or_equiv
   _atom_site_type_symbol
Pb 1.0 0.99820209     0.96228566     0.00081114     Uiso  ? Pb
Pb 1.0 0.99175561     0.00579341     0.49738168     Uiso  ? Pb
Pb 1.0 0.50911498     0.4992312     0.52220653     Uiso  ? Pb
Pb 1.0 0.47634519     0.48940189     0.01133407     Uiso  ? Pb
Cs 1.0 0.97278878     0.50538705     0.24235518     Uiso  ? Cs
Cs 1.0 0.02295442     0.54284478     0.74569578     Uiso  ? Cs
Cs 1.0 0.48519784     0.09702834     0.75507815     Uiso  ? Cs
Cs 1.0 0.54968937     0.9489924     0.22208228     Uiso  ? Cs
I 1.0 0.23761659     0.26600476     0.53588306     Uiso  ? I
I 1.0 0.79251362     0.70884188     0.46989894     Uiso  ? I
I 1.0 0.69316669     0.21051446     0.49402387     Uiso  ? I
I 1.0 0.314617     0.81608071     0.51953137     Uiso  ? I
I 1.0 0.78661007     0.70211639     0.02383662     Uiso  ? I
I 1.0 0.18213096     0.27968994     0.95255463     Uiso  ? I
I 1.0 0.31926548     0.78341097     0.94638434     Uiso  ? I
I 1.0 0.72647004     0.21491046     0.04055323     Uiso  ? I
I 1.0 0.91920872     0.96231824     0.7400203     Uiso  ? I
I 1.0 0.11345378     0.0029928     0.22981481     Uiso  ? I
I 1.0 0.38304063     0.51546809     0.26738399     Uiso  ? I
I 1.0 0.53996482     0.5096228     0.764735     Uiso  ? I
