
#======================================================================
# CRYSTAL DATA
#----------------------------------------------------------------------
data_VESTA_phase_1

_chemical_name_common                  ' struc4'
_cell_length_a                         8.6197900772
_cell_length_b                         8.8517599106
_cell_length_c                         12.5012798309
_cell_angle_alpha                      90.000000
_cell_angle_beta                       90.000000
_cell_angle_gamma                      90.000000
_cell_volume                           953.851554537
_space_group_name_H-M_alt              'P 1'
_space_group_IT_number                 1

loop_
_space_group_symop_operation_xyz
   'x, y, z'

loop_
   _atom_site_label
   _atom_site_occupancy
   _atom_site_fract_x
   _atom_site_fract_y
   _atom_site_fract_z
   _atom_site_adp_type
   _atom_site_U_iso_or_equiv
   _atom_site_type_symbol
Pb 1.0 0.99811999     0.96092144     0.99949194     Uiso  ? Pb
Pb 1.0 0.99070632     0.00512642     0.49886503     Uiso  ? Pb
Pb 1.0 0.50756925     0.49994429     0.52185901     Uiso  ? Pb
Pb 1.0 0.47820198     0.48978482     0.01208801     Uiso  ? Pb
Cs 1.0 0.97195022     0.50304847     0.24274927     Uiso  ? Cs
Cs 1.0 0.01984142     0.54352904     0.74492543     Uiso  ? Cs
Cs 1.0 0.48546192     0.09719657     0.75377156     Uiso  ? Cs
Cs 1.0 0.54974699     0.95164765     0.22311779     Uiso  ? Cs
I 1.0 0.23960445     0.26524243     0.53612638     Uiso  ? I
I 1.0 0.79138543     0.70818297     0.47078789     Uiso  ? I
I 1.0 0.69145426     0.21043024     0.49492801     Uiso  ? I
I 1.0 0.3139432     0.81800739     0.51786875     Uiso  ? I
I 1.0 0.78930286     0.69991363     0.02340297     Uiso  ? I
I 1.0 0.18337444     0.27765866     0.95221514     Uiso  ? I
I 1.0 0.32010794     0.78534696     0.94651394     Uiso  ? I
I 1.0 0.7273732     0.21264458     0.04010958     Uiso  ? I
I 1.0 0.91613263     0.96279477     0.73961016     Uiso  ? I
I 1.0 0.11588538     0.00300269     0.22983555     Uiso  ? I
I 1.0 0.38529737     0.51798183     0.26796335     Uiso  ? I
I 1.0 0.53933797     0.51106785     0.76500478     Uiso  ? I
