
#======================================================================
# CRYSTAL DATA
#----------------------------------------------------------------------
data_VESTA_phase_1

_chemical_name_common                  ' struc4'
_cell_length_a                         8.6197900772
_cell_length_b                         8.8517599106
_cell_length_c                         12.5012798309
_cell_angle_alpha                      90.000000
_cell_angle_beta                       90.000000
_cell_angle_gamma                      90.000000
_cell_volume                           953.851554537
_space_group_name_H-M_alt              'P 1'
_space_group_IT_number                 1

loop_
_space_group_symop_operation_xyz
   'x, y, z'

loop_
   _atom_site_label
   _atom_site_occupancy
   _atom_site_fract_x
   _atom_site_fract_y
   _atom_site_fract_z
   _atom_site_adp_type
   _atom_site_U_iso_or_equiv
   _atom_site_type_symbol
Pb 1.0 0.00199685     0.01372571     0.00906578     Uiso  ? Pb
Pb 1.0 0.99784748     0.99887645     0.49257802     Uiso  ? Pb
Pb 1.0 0.51068746     0.49907997     0.49859379     Uiso  ? Pb
Pb 1.0 0.49837984     0.52016746     0.99209391     Uiso  ? Pb
Cs 1.0 0.99385388     0.45030824     0.25531825     Uiso  ? Cs
Cs 1.0 0.01320897     0.58769924     0.75124453     Uiso  ? Cs
Cs 1.0 0.50563186     0.02616313     0.74651717     Uiso  ? Cs
Cs 1.0 0.52483103     0.95592859     0.25167386     Uiso  ? Cs
I 1.0 0.21000662     0.31189691     0.51483521     Uiso  ? I
I 1.0 0.8137123     0.68802233     0.47624978     Uiso  ? I
I 1.0 0.70994895     0.19597188     0.46902073     Uiso  ? I
I 1.0 0.30433002     0.79890958     0.54494067     Uiso  ? I
I 1.0 0.81759263     0.68516078     0.02728199     Uiso  ? I
I 1.0 0.17510035     0.28961909     0.95127307     Uiso  ? I
I 1.0 0.28887732     0.77762003     0.98454365     Uiso  ? I
I 1.0 0.69892146     0.18786603     0.03345179     Uiso  ? I
I 1.0 0.90639355     0.02365128     0.74695129     Uiso  ? I
I 1.0 0.05163721     0.99718805     0.25243325     Uiso  ? I
I 1.0 0.41855011     0.50236249     0.25068441     Uiso  ? I
I 1.0 0.55108044     0.46868089     0.75587633     Uiso  ? I
