
#======================================================================
# CRYSTAL DATA
#----------------------------------------------------------------------
data_VESTA_phase_1

_chemical_name_common                  ' struc4'
_cell_length_a                         8.6197900772
_cell_length_b                         8.8517599106
_cell_length_c                         12.5012798309
_cell_angle_alpha                      90.000000
_cell_angle_beta                       90.000000
_cell_angle_gamma                      90.000000
_cell_volume                           953.851554537
_space_group_name_H-M_alt              'P 1'
_space_group_IT_number                 1

loop_
_space_group_symop_operation_xyz
   'x, y, z'

loop_
   _atom_site_label
   _atom_site_occupancy
   _atom_site_fract_x
   _atom_site_fract_y
   _atom_site_fract_z
   _atom_site_adp_type
   _atom_site_U_iso_or_equiv
   _atom_site_type_symbol
Pb 1.0 0.9993272     0.95887389     0.99527094     Uiso  ? Pb
Pb 1.0 0.98863804     0.00277347     0.50312043     Uiso  ? Pb
Pb 1.0 0.50166164     0.50341672     0.52003873     Uiso  ? Pb
Pb 1.0 0.48327956     0.48987956     0.01502708     Uiso  ? Pb
Cs 1.0 0.96947909     0.4945664     0.24423826     Uiso  ? Cs
Cs 1.0 0.01045782     0.54547168     0.74223134     Uiso  ? Cs
Cs 1.0 0.48616178     0.09628733     0.750055     Uiso  ? Cs
Cs 1.0 0.54922139     0.95900894     0.22725762     Uiso  ? Cs
I 1.0 0.24323044     0.26359213     0.53706932     Uiso  ? I
I 1.0 0.78883628     0.7063107     0.47308506     Uiso  ? I
I 1.0 0.6877983     0.20910972     0.49669337     Uiso  ? I
I 1.0 0.31145496     0.82349996     0.51341031     Uiso  ? I
I 1.0 0.79560942     0.69109586     0.02213577     Uiso  ? I
I 1.0 0.18834752     0.27262181     0.95133315     Uiso  ? I
I 1.0 0.32126852     0.79258685     0.94711916     Uiso  ? I
I 1.0 0.7300441     0.20627058     0.03839089     Uiso  ? I
I 1.0 0.90695641     0.96458326     0.73875008     Uiso  ? I
I 1.0 0.12197372     0.00296961     0.23078192     Uiso  ? I
I 1.0 0.3939506     0.52555159     0.26875462     Uiso  ? I
I 1.0 0.53872228     0.51553405     0.76577878     Uiso  ? I
