
#======================================================================
# CRYSTAL DATA
#----------------------------------------------------------------------
data_VESTA_phase_1

_chemical_name_common                  ' struc4'
_cell_length_a                         8.6197900772
_cell_length_b                         8.8517599106
_cell_length_c                         12.5012798309
_cell_angle_alpha                      90.000000
_cell_angle_beta                       90.000000
_cell_angle_gamma                      90.000000
_cell_volume                           953.851554537
_space_group_name_H-M_alt              'P 1'
_space_group_IT_number                 1

loop_
_space_group_symop_operation_xyz
   'x, y, z'

loop_
   _atom_site_label
   _atom_site_occupancy
   _atom_site_fract_x
   _atom_site_fract_y
   _atom_site_fract_z
   _atom_site_adp_type
   _atom_site_U_iso_or_equiv
   _atom_site_type_symbol
Pb 1.0 0.99960397     0.95883562     0.99479657     Uiso  ? Pb
Pb 1.0 0.98850615     0.00249022     0.50355913     Uiso  ? Pb
Pb 1.0 0.50089606     0.503917     0.51977547     Uiso  ? Pb
Pb 1.0 0.48378944     0.48980262     0.0154008     Uiso  ? Pb
Cs 1.0 0.96922705     0.49348633     0.24443834     Uiso  ? Cs
Cs 1.0 0.00941846     0.54566409     0.74190113     Uiso  ? Cs
Cs 1.0 0.48622495     0.09606217     0.74967264     Uiso  ? Cs
Cs 1.0 0.54910875     0.95976567     0.22781385     Uiso  ? Cs
I 1.0 0.24338429     0.26346369     0.53718913     Uiso  ? I
I 1.0 0.78864742     0.70611794     0.4733018     Uiso  ? I
I 1.0 0.687531     0.20888514     0.49679604     Uiso  ? I
I 1.0 0.31114426     0.82406929     0.51296945     Uiso  ? I
I 1.0 0.79615338     0.68992197     0.02200126     Uiso  ? I
I 1.0 0.18901374     0.27217339     0.95124298     Uiso  ? I
I 1.0 0.32130132     0.79348125     0.9472101     Uiso  ? I
I 1.0 0.73032077     0.20562363     0.03816207     Uiso  ? I
I 1.0 0.9059455     0.96480772     0.73870835     Uiso  ? I
I 1.0 0.12250946     0.00296059     0.23094634     Uiso  ? I
I 1.0 0.39506269     0.5263913     0.26875012     Uiso  ? I
I 1.0 0.5387639     0.51603687     0.7658569     Uiso  ? I
