
#======================================================================
# CRYSTAL DATA
#----------------------------------------------------------------------
data_VESTA_phase_1

_chemical_name_common                  ' struc4'
_cell_length_a                         8.6197900772
_cell_length_b                         8.8517599106
_cell_length_c                         12.5012798309
_cell_angle_alpha                      90.000000
_cell_angle_beta                       90.000000
_cell_angle_gamma                      90.000000
_cell_volume                           953.851554537
_space_group_name_H-M_alt              'P 1'
_space_group_IT_number                 1

loop_
_space_group_symop_operation_xyz
   'x, y, z'

loop_
   _atom_site_label
   _atom_site_occupancy
   _atom_site_fract_x
   _atom_site_fract_y
   _atom_site_fract_z
   _atom_site_adp_type
   _atom_site_U_iso_or_equiv
   _atom_site_type_symbol
Pb 1.0 0.00024132     0.95886622     0.99385539     Uiso  ? Pb
Pb 1.0 0.98829806     0.00191732     0.50440667     Uiso  ? Pb
Pb 1.0 0.49930656     0.50497841     0.51921981     Uiso  ? Pb
Pb 1.0 0.48477366     0.48960257     0.01616647     Uiso  ? Pb
Cs 1.0 0.96874525     0.49124312     0.24486242     Uiso  ? Cs
Cs 1.0 0.00734637     0.54602828     0.74122636     Uiso  ? Cs
Cs 1.0 0.48633864     0.09554244     0.74893297     Uiso  ? Cs
Cs 1.0 0.54885796     0.96123992     0.22898186     Uiso  ? Cs
I 1.0 0.24352872     0.26324028     0.53743526     Uiso  ? I
I 1.0 0.78833317     0.70574324     0.47370983     Uiso  ? I
I 1.0 0.68707702     0.20840544     0.49694205     Uiso  ? I
I 1.0 0.31051065     0.82517343     0.51212387     Uiso  ? I
I 1.0 0.79716092     0.6874751     0.02173665     Uiso  ? I
I 1.0 0.1904095     0.27134732     0.95106526     Uiso  ? I
I 1.0 0.3213271     0.79530107     0.94740784     Uiso  ? I
I 1.0 0.73085116     0.20437813     0.03768164     Uiso  ? I
I 1.0 0.90393379     0.96526681     0.73866765     Uiso  ? I
I 1.0 0.12348087     0.0029399     0.23129951     Uiso  ? I
I 1.0 0.39736211     0.52806657     0.26868381     Uiso  ? I
I 1.0 0.53890823     0.51704273     0.76600507     Uiso  ? I
