
#======================================================================
# CRYSTAL DATA
#----------------------------------------------------------------------
data_VESTA_phase_1

_chemical_name_common                  ' struc4'
_cell_length_a                         8.6197900772
_cell_length_b                         8.8517599106
_cell_length_c                         12.5012798309
_cell_angle_alpha                      90.000000
_cell_angle_beta                       90.000000
_cell_angle_gamma                      90.000000
_cell_volume                           953.851554537
_space_group_name_H-M_alt              'P 1'
_space_group_IT_number                 1

loop_
_space_group_symop_operation_xyz
   'x, y, z'

loop_
   _atom_site_label
   _atom_site_occupancy
   _atom_site_fract_x
   _atom_site_fract_y
   _atom_site_fract_z
   _atom_site_adp_type
   _atom_site_U_iso_or_equiv
   _atom_site_type_symbol
Pb 1.0 0.00229466     0.95952065     0.99158771     Uiso  ? Pb
Pb 1.0 0.98808299     0.00047705     0.50631608     Uiso  ? Pb
Pb 1.0 0.4950314     0.50794737     0.51769604     Uiso  ? Pb
Pb 1.0 0.4870255     0.4888565     0.01814358     Uiso  ? Pb
Cs 1.0 0.9676999     0.48515478     0.2460694     Uiso  ? Cs
Cs 1.0 0.00221033     0.54680065     0.73947771     Uiso  ? Cs
Cs 1.0 0.48653349     0.09386395     0.74725243     Uiso  ? Cs
Cs 1.0 0.54810714     0.96469427     0.23220426     Uiso  ? Cs
I 1.0 0.24291206     0.26288925     0.53808048     Uiso  ? I
I 1.0 0.78793157     0.70486519     0.47457561     Uiso  ? I
I 1.0 0.6863904     0.20710254     0.49695202     Uiso  ? I
I 1.0 0.30889932     0.82769115     0.51023527     Uiso  ? I
I 1.0 0.79929136     0.68088807     0.02110035     Uiso  ? I
I 1.0 0.19423249     0.269698     0.95063038     Uiso  ? I
I 1.0 0.32123831     0.79993259     0.94799722     Uiso  ? I
I 1.0 0.73199299     0.20158647     0.03635524     Uiso  ? I
I 1.0 0.89899156     0.96645571     0.73884882     Uiso  ? I
I 1.0 0.12527492     0.00287754     0.23228908     Uiso  ? I
I 1.0 0.40348846     0.53221749     0.26818336     Uiso  ? I
I 1.0 0.53959765     0.51953709     0.76630799     Uiso  ? I
