
#======================================================================
# CRYSTAL DATA
#----------------------------------------------------------------------
data_VESTA_phase_1

_chemical_name_common                  ' struc4'
_cell_length_a                         8.6197900772
_cell_length_b                         8.8517599106
_cell_length_c                         12.5012798309
_cell_angle_alpha                      90.000000
_cell_angle_beta                       90.000000
_cell_angle_gamma                      90.000000
_cell_volume                           953.851554537
_space_group_name_H-M_alt              'P 1'
_space_group_IT_number                 1

loop_
_space_group_symop_operation_xyz
   'x, y, z'

loop_
   _atom_site_label
   _atom_site_occupancy
   _atom_site_fract_x
   _atom_site_fract_y
   _atom_site_fract_z
   _atom_site_adp_type
   _atom_site_U_iso_or_equiv
   _atom_site_type_symbol
Pb 1.0 0.0027774     0.95974156     0.99115531     Uiso  ? Pb
Pb 1.0 0.98808786     0.00019295     0.50665648     Uiso  ? Pb
Pb 1.0 0.49413238     0.50858813     0.5173748     Uiso  ? Pb
Pb 1.0 0.48744043     0.4886691     0.01854202     Uiso  ? Pb
Cs 1.0 0.96752271     0.48385632     0.24633689     Uiso  ? Cs
Cs 1.0 0.00119294     0.54692747     0.73912077     Uiso  ? Cs
Cs 1.0 0.48655408     0.09346868     0.74694867     Uiso  ? Cs
Cs 1.0 0.54794019     0.96534636     0.23289672     Uiso  ? Cs
I 1.0 0.24261898     0.26285771     0.53821306     Uiso  ? I
I 1.0 0.78791801     0.70469834     0.47472108     Uiso  ? I
I 1.0 0.68632535     0.20683738     0.49689191     Uiso  ? I
I 1.0 0.30858148     0.82814484     0.50989857     Uiso  ? I
I 1.0 0.79966647     0.67951157     0.02097768     Uiso  ? I
I 1.0 0.19504659     0.26943834     0.9505442     Uiso  ? I
I 1.0 0.32120759     0.80085558     0.9481314     Uiso  ? I
I 1.0 0.73218105     0.20108959     0.03606991     Uiso  ? I
I 1.0 0.89802324     0.96669712     0.73893855     Uiso  ? I
I 1.0 0.12551674     0.00286422     0.23249982     Uiso  ? I
I 1.0 0.40476738     0.5330386     0.26802713     Uiso  ? I
I 1.0 0.53978677     0.52002881     0.76635328     Uiso  ? I
