
#======================================================================
# CRYSTAL DATA
#----------------------------------------------------------------------
data_VESTA_phase_1

_chemical_name_common                  ' struc4'
_cell_length_a                         8.6197900772
_cell_length_b                         8.8517599106
_cell_length_c                         12.5012798309
_cell_angle_alpha                      90.000000
_cell_angle_beta                       90.000000
_cell_angle_gamma                      90.000000
_cell_volume                           953.851554537
_space_group_name_H-M_alt              'P 1'
_space_group_IT_number                 1

loop_
_space_group_symop_operation_xyz
   'x, y, z'

loop_
   _atom_site_label
   _atom_site_occupancy
   _atom_site_fract_x
   _atom_site_fract_y
   _atom_site_fract_z
   _atom_site_adp_type
   _atom_site_U_iso_or_equiv
   _atom_site_type_symbol
Pb 1.0 0.00380629     0.96026348     0.99031763     Uiso  ? Pb
Pb 1.0 0.98813967     0.99963408     0.50729111     Uiso  ? Pb
Pb 1.0 0.49229902     0.50990861     0.51672286     Uiso  ? Pb
Pb 1.0 0.48823564     0.48825999     0.01933398     Uiso  ? Pb
Cs 1.0 0.96720365     0.48118143     0.2468977     Uiso  ? Cs
Cs 1.0 0.99917234     0.54715054     0.73840367     Uiso  ? Cs
Cs 1.0 0.48657365     0.09262495     0.74637603     Uiso  ? Cs
Cs 1.0 0.54759511     0.9666126     0.23432572     Uiso  ? Cs
I 1.0 0.24186431     0.26283746     0.53848021     Uiso  ? I
I 1.0 0.78795657     0.70437131     0.47498316     Uiso  ? I
I 1.0 0.68626185     0.20631547     0.49670893     Uiso  ? I
I 1.0 0.30795965     0.82899399     0.50926826     Uiso  ? I
I 1.0 0.8003837     0.67672177     0.02073748     Uiso  ? I
I 1.0 0.19671524     0.26898743     0.95037189     Uiso  ? I
I 1.0 0.32114624     0.80267978     0.9484156     Uiso  ? I
I 1.0 0.73250855     0.20016281     0.03548153     Uiso  ? I
I 1.0 0.89611312     0.96718041     0.73917456     Uiso  ? I
I 1.0 0.1258758     0.0028389     0.2329297     Uiso  ? I
I 1.0 0.40736605     0.53466857     0.26766047     Uiso  ? I
I 1.0 0.54021018     0.52100171     0.76642455     Uiso  ? I
