
#======================================================================
# CRYSTAL DATA
#----------------------------------------------------------------------
data_VESTA_phase_1

_chemical_name_common                  ' struc4'
_cell_length_a                         8.6197900772
_cell_length_b                         8.8517599106
_cell_length_c                         12.5012798309
_cell_angle_alpha                      90.000000
_cell_angle_beta                       90.000000
_cell_angle_gamma                      90.000000
_cell_volume                           953.851554537
_space_group_name_H-M_alt              'P 1'
_space_group_IT_number                 1

loop_
_space_group_symop_operation_xyz
   'x, y, z'

loop_
   _atom_site_label
   _atom_site_occupancy
   _atom_site_fract_x
   _atom_site_fract_y
   _atom_site_fract_z
   _atom_site_adp_type
   _atom_site_U_iso_or_equiv
   _atom_site_type_symbol
Pb 1.0 0.00668923     0.96197714     0.98841159     Uiso  ? Pb
Pb 1.0 0.98847109     0.99832113     0.5085901     Uiso  ? Pb
Pb 1.0 0.48756605     0.5133848     0.51508127     Uiso  ? Pb
Pb 1.0 0.4900298     0.48705721     0.02123887     Uiso  ? Pb
Cs 1.0 0.96662474     0.47405981     0.24844217     Uiso  ? Cs
Cs 1.0 0.99423088     0.54751552     0.73661553     Uiso  ? Cs
Cs 1.0 0.48647624     0.09024131     0.7451504     Uiso  ? Cs
Cs 1.0 0.54669888     0.96956285     0.23813097     Uiso  ? Cs
I 1.0 0.23902121     0.26306697     0.53915519     Uiso  ? I
I 1.0 0.78841645     0.70357396     0.47546428     Uiso  ? I
I 1.0 0.68645184     0.20512966     0.4958851     Uiso  ? I
I 1.0 0.30654437     0.83073285     0.50795675     Uiso  ? I
I 1.0 0.80209121     0.66966829     0.02016928     Uiso  ? I
I 1.0 0.20105999     0.2682445     0.94993858     Uiso  ? I
I 1.0 0.32107146     0.80702613     0.94921328     Uiso  ? I
I 1.0 0.73299586     0.19826187     0.03392668     Uiso  ? I
I 1.0 0.89154558     0.96837475     0.74009686     Uiso  ? I
I 1.0 0.12601464     0.00279554     0.23403205     Uiso  ? I
I 1.0 0.4140314     0.53865054     0.26644863     Uiso  ? I
I 1.0 0.54148915     0.5233509     0.7664646     Uiso  ? I
