
#======================================================================
# CRYSTAL DATA
#----------------------------------------------------------------------
data_VESTA_phase_1

_chemical_name_common                  ' struc4'
_cell_length_a                         8.6197900772
_cell_length_b                         8.8517599106
_cell_length_c                         12.5012798309
_cell_angle_alpha                      90.000000
_cell_angle_beta                       90.000000
_cell_angle_gamma                      90.000000
_cell_volume                           953.851554537
_space_group_name_H-M_alt              'P 1'
_space_group_IT_number                 1

loop_
_space_group_symop_operation_xyz
   'x, y, z'

loop_
   _atom_site_label
   _atom_site_occupancy
   _atom_site_fract_x
   _atom_site_fract_y
   _atom_site_fract_z
   _atom_site_adp_type
   _atom_site_U_iso_or_equiv
   _atom_site_type_symbol
Pb 1.0 0.00133678     0.01413719     0.00926004     Uiso  ? Pb
Pb 1.0 0.99817709     0.99881562     0.49276046     Uiso  ? Pb
Pb 1.0 0.51104132     0.49909234     0.49841406     Uiso  ? Pb
Pb 1.0 0.49900173     0.52036391     0.99213286     Uiso  ? Pb
Cs 1.0 0.99438701     0.4504597     0.25556409     Uiso  ? Cs
Cs 1.0 0.01298892     0.58989779     0.75124145     Uiso  ? Cs
Cs 1.0 0.50647651     0.02441104     0.74654798     Uiso  ? Cs
Cs 1.0 0.52524654     0.95638172     0.25182807     Uiso  ? Cs
I 1.0 0.20992369     0.31204431     0.5140019     Uiso  ? I
I 1.0 0.81513089     0.68765616     0.47660184     Uiso  ? I
I 1.0 0.71002012     0.19604806     0.46878153     Uiso  ? I
I 1.0 0.30465285     0.79864267     0.54583736     Uiso  ? I
I 1.0 0.81802866     0.68370098     0.02710352     Uiso  ? I
I 1.0 0.17507738     0.2907451     0.94987267     Uiso  ? I
I 1.0 0.28716807     0.77782073     0.98528702     Uiso  ? I
I 1.0 0.69853122     0.18716861     0.03379318     Uiso  ? I
I 1.0 0.90526173     0.02508901     0.74681501     Uiso  ? I
I 1.0 0.05133591     0.99686121     0.25235454     Uiso  ? I
I 1.0 0.41772496     0.50259129     0.25080303     Uiso  ? I
I 1.0 0.55059434     0.46656701     0.75545738     Uiso  ? I
