
#======================================================================
# CRYSTAL DATA
#----------------------------------------------------------------------
data_VESTA_phase_1

_chemical_name_common                  ' struc4'
_cell_length_a                         8.6197900772
_cell_length_b                         8.8517599106
_cell_length_c                         12.5012798309
_cell_angle_alpha                      90.000000
_cell_angle_beta                       90.000000
_cell_angle_gamma                      90.000000
_cell_volume                           953.851554537
_space_group_name_H-M_alt              'P 1'
_space_group_IT_number                 1

loop_
_space_group_symop_operation_xyz
   'x, y, z'

loop_
   _atom_site_label
   _atom_site_occupancy
   _atom_site_fract_x
   _atom_site_fract_y
   _atom_site_fract_z
   _atom_site_adp_type
   _atom_site_U_iso_or_equiv
   _atom_site_type_symbol
Pb 1.0 0.00987654     0.96415399     0.9868312     Uiso  ? Pb
Pb 1.0 0.98898142     0.99718702     0.50946239     Uiso  ? Pb
Pb 1.0 0.48274559     0.51698941     0.51351723     Uiso  ? Pb
Pb 1.0 0.49157861     0.48563741     0.02294029     Uiso  ? Pb
Cs 1.0 0.96638193     0.46638005     0.25016843     Uiso  ? Cs
Cs 1.0 0.989493     0.54759234     0.73487587     Uiso  ? Cs
Cs 1.0 0.48612717     0.08755437     0.74420974     Uiso  ? Cs
Cs 1.0 0.54581039     0.97222597     0.24219324     Uiso  ? Cs
I 1.0 0.2349266     0.26376592     0.5398312     Uiso  ? I
I 1.0 0.7893321     0.70276036     0.47568541     Uiso  ? I
I 1.0 0.68705584     0.20424708     0.49455433     Uiso  ? I
I 1.0 0.30545201     0.83184476     0.50704308     Uiso  ? I
I 1.0 0.80388869     0.66278811     0.01965725     Uiso  ? I
I 1.0 0.20550832     0.26799454     0.94949373     Uiso  ? I
I 1.0 0.32126939     0.81088161     0.95011975     Uiso  ? I
I 1.0 0.73291705     0.196985     0.03230373     Uiso  ? I
I 1.0 0.88738473     0.96951621     0.74146332     Uiso  ? I
I 1.0 0.12503901     0.0028119     0.2351384     Uiso  ? I
I 1.0 0.42078856     0.54246096     0.26488557     Uiso  ? I
I 1.0 0.54298738     0.5255369     0.76625225     Uiso  ? I
