
#======================================================================
# CRYSTAL DATA
#----------------------------------------------------------------------
data_VESTA_phase_1

_chemical_name_common                  ' struc4'
_cell_length_a                         8.6197900772
_cell_length_b                         8.8517599106
_cell_length_c                         12.5012798309
_cell_angle_alpha                      90.000000
_cell_angle_beta                       90.000000
_cell_angle_gamma                      90.000000
_cell_volume                           953.851554537
_space_group_name_H-M_alt              'P 1'
_space_group_IT_number                 1

loop_
_space_group_symop_operation_xyz
   'x, y, z'

loop_
   _atom_site_label
   _atom_site_occupancy
   _atom_site_fract_x
   _atom_site_fract_y
   _atom_site_fract_z
   _atom_site_adp_type
   _atom_site_U_iso_or_equiv
   _atom_site_type_symbol
Pb 1.0 0.01053449     0.96463293     0.98655974     Uiso  ? Pb
Pb 1.0 0.98909151     0.99698721     0.50958617     Uiso  ? Pb
Pb 1.0 0.48178512     0.517712     0.51322347     Uiso  ? Pb
Pb 1.0 0.49186372     0.4853317     0.0232459     Uiso  ? Pb
Cs 1.0 0.96637335     0.46478668     0.25053156     Uiso  ? Cs
Cs 1.0 0.9885748     0.54757196     0.73453818     Uiso  ? Cs
Cs 1.0 0.48602248     0.08699174     0.74405374     Uiso  ? Cs
Cs 1.0 0.54563966     0.97272598     0.24302496     Uiso  ? Cs
I 1.0 0.23397711     0.26396946     0.53996603     Uiso  ? I
I 1.0 0.78956064     0.70258996     0.47569777     Uiso  ? I
I 1.0 0.68721718     0.20411827     0.49423054     Uiso  ? I
I 1.0 0.30528502     0.8319864     0.50690925     Uiso  ? I
I 1.0 0.80427949     0.66146252     0.01956314     Uiso  ? I
I 1.0 0.20639317     0.26799758     0.94940238     Uiso  ? I
I 1.0 0.32135758     0.81157532     0.9503124     Uiso  ? I
I 1.0 0.73282463     0.19680433     0.03197754     Uiso  ? I
I 1.0 0.88661596     0.96973431     0.74178303     Uiso  ? I
I 1.0 0.12471023     0.00282524     0.23535785     Uiso  ? I
I 1.0 0.42213445     0.54319947     0.26454116     Uiso  ? I
I 1.0 0.54330189     0.52594969     0.76617445     Uiso  ? I
