
#======================================================================
# CRYSTAL DATA
#----------------------------------------------------------------------
data_VESTA_phase_1

_chemical_name_common                  ' struc4'
_cell_length_a                         8.6197900772
_cell_length_b                         8.8517599106
_cell_length_c                         12.5012798309
_cell_angle_alpha                      90.000000
_cell_angle_beta                       90.000000
_cell_angle_gamma                      90.000000
_cell_volume                           953.851554537
_space_group_name_H-M_alt              'P 1'
_space_group_IT_number                 1

loop_
_space_group_symop_operation_xyz
   'x, y, z'

loop_
   _atom_site_label
   _atom_site_occupancy
   _atom_site_fract_x
   _atom_site_fract_y
   _atom_site_fract_z
   _atom_site_adp_type
   _atom_site_U_iso_or_equiv
   _atom_site_type_symbol
Pb 1.0 0.01956664     0.97228469     0.98451637     Uiso  ? Pb
Pb 1.0 0.99004761     0.99532043     0.50976484     Uiso  ? Pb
Pb 1.0 0.46937872     0.52708273     0.51021104     Uiso  ? Pb
Pb 1.0 0.49539267     0.48060887     0.0257174     Uiso  ? Pb
Cs 1.0 0.96749507     0.44105727     0.25594421     Uiso  ? Cs
Cs 1.0 0.97706786     0.5460381     0.73041683     Uiso  ? Cs
Cs 1.0 0.48314744     0.07892494     0.7427071     Uiso  ? Cs
Cs 1.0 0.54371831     0.97868812     0.25473257     Uiso  ? Cs
I 1.0 0.21757403     0.26940049     0.54177794     Uiso  ? I
I 1.0 0.7936138     0.69962703     0.47475397     Uiso  ? I
I 1.0 0.69039929     0.20434903     0.4880801     Uiso  ? I
I 1.0 0.30511829     0.83140345     0.5067633     Uiso  ? I
I 1.0 0.81177932     0.64594374     0.01863779     Uiso  ? I
I 1.0 0.21748461     0.26944935     0.9480128     Uiso  ? I
I 1.0 0.32494364     0.81780549     0.95330146     Uiso  ? I
I 1.0 0.72865537     0.19649953     0.02773009     Uiso  ? I
I 1.0 0.87891438     0.97222481     0.74714247     Uiso  ? I
I 1.0 0.11581468     0.00353558     0.23840621     Uiso  ? I
I 1.0 0.43993908     0.55259323     0.25941501     Uiso  ? I
I 1.0 0.54750616     0.53068117     0.76361929     Uiso  ? I
