
#======================================================================
# CRYSTAL DATA
#----------------------------------------------------------------------
data_VESTA_phase_1

_chemical_name_common                  ' struc4'
_cell_length_a                         8.6197900772
_cell_length_b                         8.8517599106
_cell_length_c                         12.5012798309
_cell_angle_alpha                      90.000000
_cell_angle_beta                       90.000000
_cell_angle_gamma                      90.000000
_cell_volume                           953.851554537
_space_group_name_H-M_alt              'P 1'
_space_group_IT_number                 1

loop_
_space_group_symop_operation_xyz
   'x, y, z'

loop_
   _atom_site_label
   _atom_site_occupancy
   _atom_site_fract_x
   _atom_site_fract_y
   _atom_site_fract_z
   _atom_site_adp_type
   _atom_site_U_iso_or_equiv
   _atom_site_type_symbol
Pb 1.0 0.02016046     0.97286939     0.98449925     Uiso  ? Pb
Pb 1.0 0.99003179     0.99528303     0.50968362     Uiso  ? Pb
Pb 1.0 0.46861629     0.52765292     0.51008862     Uiso  ? Pb
Pb 1.0 0.49563833     0.4802618     0.02573876     Uiso  ? Pb
Cs 1.0 0.96764965     0.43929809     0.25634098     Uiso  ? Cs
Cs 1.0 0.97635716     0.54584286     0.73017947     Uiso  ? Cs
Cs 1.0 0.48283878     0.07837135     0.74265286     Uiso  ? Cs
Cs 1.0 0.54361669     0.97904436     0.25553531     Uiso  ? Cs
I 1.0 0.21625786     0.26998319     0.54189931     Uiso  ? I
I 1.0 0.79392498     0.69936252     0.47460763     Uiso  ? I
I 1.0 0.69067255     0.204515     0.48755503     Uiso  ? I
I 1.0 0.30525532     0.83122761     0.50687141     Uiso  ? I
I 1.0 0.81249236     0.64509762     0.01860524     Uiso  ? I
I 1.0 0.21812851     0.26962935     0.94790279     Uiso  ? I
I 1.0 0.32538101     0.81798343     0.95353387     Uiso  ? I
I 1.0 0.72815963     0.19659914     0.02746761     Uiso  ? I
I 1.0 0.87861801     0.97235445     0.74753992     Uiso  ? I
I 1.0 0.1149085     0.00362739     0.2386306     Uiso  ? I
I 1.0 0.44109953     0.5531902     0.25907728     Uiso  ? I
I 1.0 0.54775646     0.53093859     0.76332453     Uiso  ? I
