
#======================================================================
# CRYSTAL DATA
#----------------------------------------------------------------------
data_VESTA_phase_1

_chemical_name_common                  ' struc4'
_cell_length_a                         8.6197900772
_cell_length_b                         8.8517599106
_cell_length_c                         12.5012798309
_cell_angle_alpha                      90.000000
_cell_angle_beta                       90.000000
_cell_angle_gamma                      90.000000
_cell_volume                           953.851554537
_space_group_name_H-M_alt              'P 1'
_space_group_IT_number                 1

loop_
_space_group_symop_operation_xyz
   'x, y, z'

loop_
   _atom_site_label
   _atom_site_occupancy
   _atom_site_fract_x
   _atom_site_fract_y
   _atom_site_fract_z
   _atom_site_adp_type
   _atom_site_U_iso_or_equiv
   _atom_site_type_symbol
Pb 1.0 0.02131637     0.97404161     0.98451528     Uiso  ? Pb
Pb 1.0 0.98995269     0.99523817     0.50949115     Uiso  ? Pb
Pb 1.0 0.46715998     0.52873336     0.50988297     Uiso  ? Pb
Pb 1.0 0.49613877     0.4795751     0.02571236     Uiso  ? Pb
Cs 1.0 0.96798201     0.43577025     0.25713362     Uiso  ? Cs
Cs 1.0 0.97498429     0.54542075     0.72973294     Uiso  ? Cs
Cs 1.0 0.48218145     0.07728471     0.74255444     Uiso  ? Cs
Cs 1.0 0.54342558     0.9797305     0.25711277     Uiso  ? Cs
I 1.0 0.21359861     0.2712269     0.54213799     Uiso  ? I
I 1.0 0.79454225     0.69881054     0.47428436     Uiso  ? I
I 1.0 0.69123297     0.20490514     0.48648488     Uiso  ? I
I 1.0 0.30557532     0.83085485     0.50713107     Uiso  ? I
I 1.0 0.81399446     0.64352096     0.01855489     Uiso  ? I
I 1.0 0.2193376     0.27001117     0.94767711     Uiso  ? I
I 1.0 0.32632417     0.81823414     0.95400662     Uiso  ? I
I 1.0 0.72709879     0.19682507     0.02696498     Uiso  ? I
I 1.0 0.87813566     0.97259315     0.74832109     Uiso  ? I
I 1.0 0.11300688     0.00382594     0.2390864     Uiso  ? I
I 1.0 0.4433657     0.55435338     0.2584318     Uiso  ? I
I 1.0 0.54822308     0.5314197     0.76268959     Uiso  ? I
