
#======================================================================
# CRYSTAL DATA
#----------------------------------------------------------------------
data_VESTA_phase_1

_chemical_name_common                  ' struc4'
_cell_length_a                         8.6197900772
_cell_length_b                         8.8517599106
_cell_length_c                         12.5012798309
_cell_angle_alpha                      90.000000
_cell_angle_beta                       90.000000
_cell_angle_gamma                      90.000000
_cell_volume                           953.851554537
_space_group_name_H-M_alt              'P 1'
_space_group_IT_number                 1

loop_
_space_group_symop_operation_xyz
   'x, y, z'

loop_
   _atom_site_label
   _atom_site_occupancy
   _atom_site_fract_x
   _atom_site_fract_y
   _atom_site_fract_z
   _atom_site_adp_type
   _atom_site_U_iso_or_equiv
   _atom_site_type_symbol
Pb 1.0 0.02242794     0.97521273     0.98459681     Uiso  ? Pb
Pb 1.0 0.98980703     0.99523115     0.50926134     Uiso  ? Pb
Pb 1.0 0.46580138     0.52972606     0.50972867     Uiso  ? Pb
Pb 1.0 0.49665582     0.47890384     0.02559303     Uiso  ? Pb
Cs 1.0 0.96834331     0.4322357     0.25792336     Uiso  ? Cs
Cs 1.0 0.97367866     0.54495935     0.72932605     Uiso  ? Cs
Cs 1.0 0.48147237     0.07622833     0.74246682     Uiso  ? Cs
Cs 1.0 0.54324814     0.98038154     0.25864838     Uiso  ? Cs
I 1.0 0.21091489     0.27257246     0.54237093     Uiso  ? I
I 1.0 0.79514896     0.69822944     0.47392141     Uiso  ? I
I 1.0 0.6918112     0.20537133     0.4853931     Uiso  ? I
I 1.0 0.30594709     0.83047026     0.50744726     Uiso  ? I
I 1.0 0.81559741     0.64209939     0.0185242     Uiso  ? I
I 1.0 0.22043637     0.27041864     0.94744328     Uiso  ? I
I 1.0 0.32735225     0.81834862     0.95449015     Uiso  ? I
I 1.0 0.72595233     0.19707716     0.02649414     Uiso  ? I
I 1.0 0.87780098     0.97280438     0.74907763     Uiso  ? I
I 1.0 0.11099379     0.00404223     0.23955397     Uiso  ? I
I 1.0 0.44555568     0.55547437     0.25783107     Uiso  ? I
I 1.0 0.54863882     0.5318564     0.76199513     Uiso  ? I
