
#======================================================================
# CRYSTAL DATA
#----------------------------------------------------------------------
data_VESTA_phase_1

_chemical_name_common                  ' struc4'
_cell_length_a                         8.6197900772
_cell_length_b                         8.8517599106
_cell_length_c                         12.5012798309
_cell_angle_alpha                      90.000000
_cell_angle_beta                       90.000000
_cell_angle_gamma                      90.000000
_cell_volume                           953.851554537
_space_group_name_H-M_alt              'P 1'
_space_group_IT_number                 1

loop_
_space_group_symop_operation_xyz
   'x, y, z'

loop_
   _atom_site_label
   _atom_site_occupancy
   _atom_site_fract_x
   _atom_site_fract_y
   _atom_site_fract_z
   _atom_site_adp_type
   _atom_site_U_iso_or_equiv
   _atom_site_type_symbol
Pb 1.0 0.02595457     0.97921531     0.98536607     Uiso  ? Pb
Pb 1.0 0.98873645     0.99545689     0.50820835     Uiso  ? Pb
Pb 1.0 0.46191426     0.53237553     0.50956764     Uiso  ? Pb
Pb 1.0 0.49866252     0.47678074     0.02445458     Uiso  ? Pb
Cs 1.0 0.96979287     0.4199342     0.26062714     Uiso  ? Cs
Cs 1.0 0.96966891     0.54307959     0.72824751     Uiso  ? Cs
Cs 1.0 0.47862813     0.07281022     0.74220101     Uiso  ? Cs
Cs 1.0 0.54267591     0.98237924     0.26359616     Uiso  ? Cs
I 1.0 0.2015015     0.27803475     0.5431365     Uiso  ? I
I 1.0 0.79714705     0.6959937     0.47235473     Uiso  ? I
I 1.0 0.69396592     0.20758226     0.48150776     Uiso  ? I
I 1.0 0.30747227     0.82932333     0.50897344     Uiso  ? I
I 1.0 0.82196178     0.63833908     0.0185708     Uiso  ? I
I 1.0 0.2233247     0.27199511     0.94655069     Uiso  ? I
I 1.0 0.33149279     0.81777647     0.95627666     Uiso  ? I
I 1.0 0.72139651     0.19798137     0.02512139     Uiso  ? I
I 1.0 0.87778553     0.97333971     0.75143831     Uiso  ? I
I 1.0 0.10322848     0.00490302     0.24131438     Uiso  ? I
I 1.0 0.45258025     0.55904211     0.25614371     Uiso  ? I
I 1.0 0.54961218     0.53302948     0.75913364     Uiso  ? I
