
#======================================================================
# CRYSTAL DATA
#----------------------------------------------------------------------
data_VESTA_phase_1

_chemical_name_common                  ' struc4'
_cell_length_a                         8.6197900772
_cell_length_b                         8.8517599106
_cell_length_c                         12.5012798309
_cell_angle_alpha                      90.000000
_cell_angle_beta                       90.000000
_cell_angle_gamma                      90.000000
_cell_volume                           953.851554537
_space_group_name_H-M_alt              'P 1'
_space_group_IT_number                 1

loop_
_space_group_symop_operation_xyz
   'x, y, z'

loop_
   _atom_site_label
   _atom_site_occupancy
   _atom_site_fract_x
   _atom_site_fract_y
   _atom_site_fract_z
   _atom_site_adp_type
   _atom_site_U_iso_or_equiv
   _atom_site_type_symbol
Pb 1.0 0.02772249     0.98136642     0.98611196     Uiso  ? Pb
Pb 1.0 0.98772514     0.99571736     0.50746881     Uiso  ? Pb
Pb 1.0 0.46036134     0.53321632     0.50970859     Uiso  ? Pb
Pb 1.0 0.49998913     0.4758252     0.02333295     Uiso  ? Pb
Cs 1.0 0.97071055     0.41305995     0.26209012     Uiso  ? Cs
Cs 1.0 0.9677837     0.54186109     0.7278968     Uiso  ? Cs
Cs 1.0 0.4767935     0.07107164     0.74204767     Uiso  ? Cs
Cs 1.0 0.54233444     0.98329722     0.26604492     Uiso  ? Cs
I 1.0 0.19622252     0.28162951     0.54353547     Uiso  ? I
I 1.0 0.7981903     0.69461     0.47126953     Uiso  ? I
I 1.0 0.69527869     0.20923189     0.4793345     Uiso  ? I
I 1.0 0.30834587     0.82903964     0.51011668     Uiso  ? I
I 1.0 0.82606973     0.63700452     0.01870298     Uiso  ? I
I 1.0 0.22426005     0.2729682     0.94598331     Uiso  ? I
I 1.0 0.33410916     0.81687922     0.95737477     Uiso  ? I
I 1.0 0.71853747     0.19835704     0.02453676     Uiso  ? I
I 1.0 0.87855336     0.97351663     0.75253045     Uiso  ? I
I 1.0 0.09840236     0.00542627     0.24242727     Uiso  ? I
I 1.0 0.45613951     0.56081011     0.25548613     Uiso  ? I
I 1.0 0.54978627     0.53345175     0.75724631     Uiso  ? I
