
#======================================================================
# CRYSTAL DATA
#----------------------------------------------------------------------
data_VESTA_phase_1

_chemical_name_common                  ' struc4'
_cell_length_a                         8.6197900772
_cell_length_b                         8.8517599106
_cell_length_c                         12.5012798309
_cell_angle_alpha                      90.000000
_cell_angle_beta                       90.000000
_cell_angle_gamma                      90.000000
_cell_volume                           953.851554537
_space_group_name_H-M_alt              'P 1'
_space_group_IT_number                 1

loop_
_space_group_symop_operation_xyz
   'x, y, z'

loop_
   _atom_site_label
   _atom_site_occupancy
   _atom_site_fract_x
   _atom_site_fract_y
   _atom_site_fract_z
   _atom_site_adp_type
   _atom_site_U_iso_or_equiv
   _atom_site_type_symbol
Pb 1.0 0.99970967     0.01485161     0.00946534     Uiso  ? Pb
Pb 1.0 0.99907101     0.9987115     0.49342978     Uiso  ? Pb
Pb 1.0 0.5116356     0.49914546     0.49801243     Uiso  ? Pb
Pb 1.0 0.50053345     0.52033876     0.99241995     Uiso  ? Pb
Cs 1.0 0.99540652     0.45069216     0.25603077     Uiso  ? Cs
Cs 1.0 0.01253783     0.59448597     0.75120213     Uiso  ? Cs
Cs 1.0 0.50783679     0.0208101     0.74674717     Uiso  ? Cs
Cs 1.0 0.52603053     0.95720391     0.25217897     Uiso  ? Cs
I 1.0 0.20938827     0.31205361     0.51234941     Uiso  ? I
I 1.0 0.81832964     0.68707342     0.47730748     Uiso  ? I
I 1.0 0.70986811     0.19637023     0.46819036     Uiso  ? I
I 1.0 0.3053845     0.7979678     0.54765631     Uiso  ? I
I 1.0 0.81876989     0.68059125     0.02673736     Uiso  ? I
I 1.0 0.17551524     0.29364118     0.94689638     Uiso  ? I
I 1.0 0.28338077     0.77877341     0.98674671     Uiso  ? I
I 1.0 0.69741568     0.18586676     0.03456172     Uiso  ? I
I 1.0 0.9034536     0.02800185     0.74655182     Uiso  ? I
I 1.0 0.05088774     0.99615341     0.25211166     Uiso  ? I
I 1.0 0.4162471     0.50315925     0.25103732     Uiso  ? I
I 1.0 0.54969434     0.46210248     0.7542978     Uiso  ? I
