
#======================================================================
# CRYSTAL DATA
#----------------------------------------------------------------------
data_VESTA_phase_1

_chemical_name_common                  ' struc4'
_cell_length_a                         8.6197900772
_cell_length_b                         8.8517599106
_cell_length_c                         12.5012798309
_cell_angle_alpha                      90.000000
_cell_angle_beta                       90.000000
_cell_angle_gamma                      90.000000
_cell_volume                           953.851554537
_space_group_name_H-M_alt              'P 1'
_space_group_IT_number                 1

loop_
_space_group_symop_operation_xyz
   'x, y, z'

loop_
   _atom_site_label
   _atom_site_occupancy
   _atom_site_fract_x
   _atom_site_fract_y
   _atom_site_fract_z
   _atom_site_adp_type
   _atom_site_U_iso_or_equiv
   _atom_site_type_symbol
Pb 1.0 0.03078492     0.98514754     0.98814916     Uiso  ? Pb
Pb 1.0 0.98489196     0.99637326     0.50579674     Uiso  ? Pb
Pb 1.0 0.45879553     0.53324349     0.51034558     Uiso  ? Pb
Pb 1.0 0.50311488     0.47481865     0.02023633     Uiso  ? Pb
Cs 1.0 0.97261987     0.4000777     0.26471475     Uiso  ? Cs
Cs 1.0 0.96490795     0.53925875     0.72783648     Uiso  ? Cs
Cs 1.0 0.47284411     0.06808544     0.74167374     Uiso  ? Cs
Cs 1.0 0.54145569     0.98453461     0.26999547     Uiso  ? Cs
I 1.0 0.1861557     0.28960474     0.54420724     Uiso  ? I
I 1.0 0.8000767     0.69176224     0.46875723     Uiso  ? I
I 1.0 0.69801386     0.2133308     0.47533826     Uiso  ? I
I 1.0 0.30969216     0.82982407     0.51292767     Uiso  ? I
I 1.0 0.83509001     0.63593519     0.01918133     Uiso  ? I
I 1.0 0.22451609     0.2750213     0.944714     Uiso  ? I
I 1.0 0.33942403     0.81425794     0.95978249     Uiso  ? I
I 1.0 0.7126843     0.19831717     0.02378322     Uiso  ? I
I 1.0 0.88161225     0.97364811     0.75405997     Uiso  ? I
I 1.0 0.08825382     0.00630447     0.2449222     Uiso  ? I
I 1.0 0.46229196     0.56365948     0.25472207     Uiso  ? I
I 1.0 0.5492315     0.53376623     0.75313716     Uiso  ? I
