
#======================================================================
# CRYSTAL DATA
#----------------------------------------------------------------------
data_VESTA_phase_1

_chemical_name_common                  ' struc4'
_cell_length_a                         8.6197900772
_cell_length_b                         8.8517599106
_cell_length_c                         12.5012798309
_cell_angle_alpha                      90.000000
_cell_angle_beta                       90.000000
_cell_angle_gamma                      90.000000
_cell_volume                           953.851554537
_space_group_name_H-M_alt              'P 1'
_space_group_IT_number                 1

loop_
_space_group_symop_operation_xyz
   'x, y, z'

loop_
   _atom_site_label
   _atom_site_occupancy
   _atom_site_fract_x
   _atom_site_fract_y
   _atom_site_fract_z
   _atom_site_adp_type
   _atom_site_U_iso_or_equiv
   _atom_site_type_symbol
Pb 1.0 0.03436562     0.98883921     0.99216769     Uiso  ? Pb
Pb 1.0 0.97909145     0.99721411     0.50317019     Uiso  ? Pb
Pb 1.0 0.45991972     0.5294315     0.51151077     Uiso  ? Pb
Pb 1.0 0.50899826     0.47647975     0.01413617     Uiso  ? Pb
Cs 1.0 0.97536065     0.38426615     0.26762388     Uiso  ? Cs
Cs 1.0 0.96256782     0.53552101     0.72951606     Uiso  ? Cs
Cs 1.0 0.46690419     0.06484086     0.74097555     Uiso  ? Cs
Cs 1.0 0.53919142     0.98460956     0.27326888     Uiso  ? Cs
I 1.0 0.17287535     0.30257009     0.54465162     Uiso  ? I
I 1.0 0.80257694     0.68786214     0.46439365     Uiso  ? I
I 1.0 0.70187248     0.22139192     0.47082259     Uiso  ? I
I 1.0 0.31019519     0.83454135     0.518182     Uiso  ? I
I 1.0 0.84983731     0.63760468     0.02038492     Uiso  ? I
I 1.0 0.221219     0.27857254     0.94254841     Uiso  ? I
I 1.0 0.34639634     0.8096511     0.96400378     Uiso  ? I
I 1.0 0.7048515     0.19498386     0.02360287     Uiso  ? I
I 1.0 0.88932061     0.97349108     0.75476594     Uiso  ? I
I 1.0 0.0727851     0.00590898     0.24919451     Uiso  ? I
I 1.0 0.46921149     0.56576496     0.2541617     Uiso  ? I
I 1.0 0.54625615     0.53299284     0.74710321     Uiso  ? I
