
#======================================================================
# CRYSTAL DATA
#----------------------------------------------------------------------
data_VESTA_phase_1

_chemical_name_common                  ' struc4'
_cell_length_a                         8.6197900772
_cell_length_b                         8.8517599106
_cell_length_c                         12.5012798309
_cell_angle_alpha                      90.000000
_cell_angle_beta                       90.000000
_cell_angle_gamma                      90.000000
_cell_volume                           953.851554537
_space_group_name_H-M_alt              'P 1'
_space_group_IT_number                 1

loop_
_space_group_symop_operation_xyz
   'x, y, z'

loop_
   _atom_site_label
   _atom_site_occupancy
   _atom_site_fract_x
   _atom_site_fract_y
   _atom_site_fract_z
   _atom_site_adp_type
   _atom_site_U_iso_or_equiv
   _atom_site_type_symbol
Pb 1.0 0.03507666     0.98929947     0.99328386     Uiso  ? Pb
Pb 1.0 0.97746346     0.99731426     0.50256318     Uiso  ? Pb
Pb 1.0 0.4606993     0.52793136     0.51169366     Uiso  ? Pb
Pb 1.0 0.51067858     0.47757349     0.01245937     Uiso  ? Pb
Cs 1.0 0.97598316     0.38136936     0.26811068     Uiso  ? Cs
Cs 1.0 0.96227766     0.5347268     0.73029414     Uiso  ? Cs
Cs 1.0 0.46552993     0.06426568     0.74080952     Uiso  ? Cs
Cs 1.0 0.53839058     0.9842672     0.27357263     Uiso  ? Cs
I 1.0 0.17000702     0.30581856     0.5446075     Uiso  ? I
I 1.0 0.80317933     0.6870588     0.46324577     Uiso  ? I
I 1.0 0.7026361     0.22373464     0.47003792     Uiso  ? I
I 1.0 0.31006025     0.83617593     0.51962248     Uiso  ? I
I 1.0 0.85359979     0.6384953     0.02076701     Uiso  ? I
I 1.0 0.21984524     0.27962116     0.9419909     Uiso  ? I
I 1.0 0.34779645     0.80860239     0.96517618     Uiso  ? I
I 1.0 0.70323702     0.19339492     0.0237166     Uiso  ? I
I 1.0 0.89170729     0.97341915     0.75469416     Uiso  ? I
I 1.0 0.06902357     0.00520643     0.25029645     Uiso  ? I
I 1.0 0.47053391     0.56580575     0.25396833     Uiso  ? I
I 1.0 0.54518215     0.53257733     0.74583082     Uiso  ? I
