
#======================================================================
# CRYSTAL DATA
#----------------------------------------------------------------------
data_VESTA_phase_1

_chemical_name_common                  ' struc4'
_cell_length_a                         8.6197900772
_cell_length_b                         8.8517599106
_cell_length_c                         12.5012798309
_cell_angle_alpha                      90.000000
_cell_angle_beta                       90.000000
_cell_angle_gamma                      90.000000
_cell_volume                           953.851554537
_space_group_name_H-M_alt              'P 1'
_space_group_IT_number                 1

loop_
_space_group_symop_operation_xyz
   'x, y, z'

loop_
   _atom_site_label
   _atom_site_occupancy
   _atom_site_fract_x
   _atom_site_fract_y
   _atom_site_fract_z
   _atom_site_adp_type
   _atom_site_U_iso_or_equiv
   _atom_site_type_symbol
Pb 1.0 0.03550659     0.98949517     0.99404166     Uiso  ? Pb
Pb 1.0 0.9763594     0.99734457     0.50218252     Uiso  ? Pb
Pb 1.0 0.46129797     0.52684864     0.5117657     Uiso  ? Pb
Pb 1.0 0.51184435     0.47845128     0.01132577     Uiso  ? Pb
Cs 1.0 0.97638311     0.37973119     0.26836885     Uiso  ? Cs
Cs 1.0 0.96213559     0.53424505     0.73089674     Uiso  ? Cs
Cs 1.0 0.46465204     0.06393567     0.7407113     Uiso  ? Cs
Cs 1.0 0.53779988     0.98395979     0.27366639     Uiso  ? Cs
I 1.0 0.16821087     0.30795687     0.54453462     Uiso  ? I
I 1.0 0.80358112     0.68657389     0.46247689     Uiso  ? I
I 1.0 0.70307045     0.22535809     0.46959656     Uiso  ? I
I 1.0 0.30992459     0.83731225     0.52059851     Uiso  ? I
I 1.0 0.85610118     0.63917363     0.0210392     Uiso  ? I
I 1.0 0.21883908     0.28037114     0.94162278     Uiso  ? I
I 1.0 0.34863917     0.80795875     0.96598258     Uiso  ? I
I 1.0 0.70224915     0.19216516     0.02382415     Uiso  ? I
I 1.0 0.89338164     0.97336861     0.75460201     Uiso  ? I
I 1.0 0.06656081     0.00455631     0.25102295     Uiso  ? I
I 1.0 0.47132804     0.56571482     0.25380254     Uiso  ? I
I 1.0 0.54440973     0.53225406     0.74507205     Uiso  ? I
