
#======================================================================
# CRYSTAL DATA
#----------------------------------------------------------------------
data_VESTA_phase_1

_chemical_name_common                  ' struc4'
_cell_length_a                         8.6197900772
_cell_length_b                         8.8517599106
_cell_length_c                         12.5012798309
_cell_angle_alpha                      90.000000
_cell_angle_beta                       90.000000
_cell_angle_gamma                      90.000000
_cell_volume                           953.851554537
_space_group_name_H-M_alt              'P 1'
_space_group_IT_number                 1

loop_
_space_group_symop_operation_xyz
   'x, y, z'

loop_
   _atom_site_label
   _atom_site_occupancy
   _atom_site_fract_x
   _atom_site_fract_y
   _atom_site_fract_z
   _atom_site_adp_type
   _atom_site_U_iso_or_equiv
   _atom_site_type_symbol
Pb 1.0 0.03670565     0.98948046     0.996734     Uiso  ? Pb
Pb 1.0 0.97246242     0.99718107     0.50106161     Uiso  ? Pb
Pb 1.0 0.46375165     0.52270543     0.51159459     Uiso  ? Pb
Pb 1.0 0.51622467     0.4823775     0.00731939     Uiso  ? Pb
Cs 1.0 0.97769518     0.37602314     0.26880527     Uiso  ? Cs
Cs 1.0 0.96189578     0.53292486     0.73354954     Uiso  ? Cs
Cs 1.0 0.46187568     0.06314196     0.74050585     Uiso  ? Cs
Cs 1.0 0.53537306     0.98241277     0.27336068     Uiso  ? Cs
I 1.0 0.162722     0.31515494     0.54396036     Uiso  ? I
I 1.0 0.80500507     0.68523706     0.459803     Uiso  ? I
I 1.0 0.70398816     0.23135615     0.46856544     Uiso  ? I
I 1.0 0.30921003     0.84134352     0.52404186     Uiso  ? I
I 1.0 0.86472131     0.64198909     0.02210502     Uiso  ? I
I 1.0 0.21489357     0.28338751     0.94038517     Uiso  ? I
I 1.0 0.35100184     0.80616709     0.96895735     Uiso  ? I
I 1.0 0.69934159     0.18686807     0.02438044     Uiso  ? I
I 1.0 0.89969879     0.97319322     0.75405136     Uiso  ? I
I 1.0 0.05828848     0.00097572     0.25343612     Uiso  ? I
I 1.0 0.47356264     0.56460875     0.25290873     Uiso  ? I
I 1.0 0.54143533     0.53084483     0.74313512     Uiso  ? I
