
#======================================================================
# CRYSTAL DATA
#----------------------------------------------------------------------
data_VESTA_phase_1

_chemical_name_common                  ' struc4'
_cell_length_a                         8.6197900772
_cell_length_b                         8.8517599106
_cell_length_c                         12.5012798309
_cell_angle_alpha                      90.000000
_cell_angle_beta                       90.000000
_cell_angle_gamma                      90.000000
_cell_volume                           953.851554537
_space_group_name_H-M_alt              'P 1'
_space_group_IT_number                 1

loop_
_space_group_symop_operation_xyz
   'x, y, z'

loop_
   _atom_site_label
   _atom_site_occupancy
   _atom_site_fract_x
   _atom_site_fract_y
   _atom_site_fract_z
   _atom_site_adp_type
   _atom_site_U_iso_or_equiv
   _atom_site_type_symbol
Pb 1.0 0.03733933     0.9862928     0.00230352     Uiso  ? Pb
Pb 1.0 0.96478515     0.99523333     0.50034018     Uiso  ? Pb
Pb 1.0 0.46962442     0.51342942     0.50823249     Uiso  ? Pb
Pb 1.0 0.52731826     0.49375582     0.99907908     Uiso  ? Pb
Cs 1.0 0.98046796     0.37900676     0.26677982     Uiso  ? Cs
Cs 1.0 0.96219465     0.53241705     0.74206689     Uiso  ? Cs
Cs 1.0 0.45798558     0.06377947     0.74146301     Uiso  ? Cs
Cs 1.0 0.52826595     0.97696035     0.27011891     Uiso  ? Cs
I 1.0 0.15562943     0.32826132     0.54064327     Uiso  ? I
I 1.0 0.80807917     0.68459154     0.4546239     Uiso  ? I
I 1.0 0.70207916     0.24452498     0.46882652     Uiso  ? I
I 1.0 0.3064151     0.84821853     0.53061918     Uiso  ? I
I 1.0 0.88147518     0.64955566     0.02505057     Uiso  ? I
I 1.0 0.20579052     0.29225207     0.93846001     Uiso  ? I
I 1.0 0.35329438     0.80541515     0.9760309     Uiso  ? I
I 1.0 0.69554372     0.1719329     0.02621669     Uiso  ? I
I 1.0 0.91500439     0.97293085     0.75230014     Uiso  ? I
I 1.0 0.0426594     0.986396     0.25712508     Uiso  ? I
I 1.0 0.47556304     0.55783565     0.24894063     Uiso  ? I
I 1.0 0.53443416     0.52661317     0.74351496     Uiso  ? I
