
#======================================================================
# CRYSTAL DATA
#----------------------------------------------------------------------
data_VESTA_phase_1

_chemical_name_common                  ' struc4'
_cell_length_a                         8.6197900772
_cell_length_b                         8.8517599106
_cell_length_c                         12.5012798309
_cell_angle_alpha                      90.000000
_cell_angle_beta                       90.000000
_cell_angle_gamma                      90.000000
_cell_volume                           953.851554537
_space_group_name_H-M_alt              'P 1'
_space_group_IT_number                 1

loop_
_space_group_symop_operation_xyz
   'x, y, z'

loop_
   _atom_site_label
   _atom_site_occupancy
   _atom_site_fract_x
   _atom_site_fract_y
   _atom_site_fract_z
   _atom_site_adp_type
   _atom_site_U_iso_or_equiv
   _atom_site_type_symbol
Pb 1.0 0.99714076     0.01563603     0.00932122     Uiso  ? Pb
Pb 1.0 0.00066741     0.99865106     0.49487392     Uiso  ? Pb
Pb 1.0 0.51216808     0.49926386     0.49743154     Uiso  ? Pb
Pb 1.0 0.50291163     0.51953477     0.9931558     Uiso  ? Pb
Cs 1.0 0.99657652     0.45082924     0.25656314     Uiso  ? Cs
Cs 1.0 0.01195372     0.60065619     0.75109221     Uiso  ? Cs
Cs 1.0 0.5088062     0.01607009     0.74731021     Uiso  ? Cs
Cs 1.0 0.52689494     0.95804573     0.25271947     Uiso  ? Cs
I 1.0 0.20801457     0.31151333     0.51029799     Uiso  ? I
I 1.0 0.8230195     0.68658803     0.47820064     Uiso  ? I
I 1.0 0.7091335     0.19708272     0.4672126     Uiso  ? I
I 1.0 0.30644996     0.79684113     0.54997518     Uiso  ? I
I 1.0 0.81950574     0.67636515     0.02625558     Uiso  ? I
I 1.0 0.17690591     0.29838606     0.9428351     Uiso  ? I
I 1.0 0.27807284     0.78086201     0.98853533     Uiso  ? I
I 1.0 0.69523613     0.1844882     0.0357016     Uiso  ? I
I 1.0 0.90219897     0.03177239     0.74623925     Uiso  ? I
I 1.0 0.05062419     0.99514486     0.25166767     Uiso  ? I
I 1.0 0.4147743     0.50412081     0.25128135     Uiso  ? I
I 1.0 0.54870076     0.45600434     0.75226835     Uiso  ? I
