
#======================================================================
# CRYSTAL DATA
#----------------------------------------------------------------------
data_VESTA_phase_1

_chemical_name_common                  ' struc4'
_cell_length_a                         8.6197900772
_cell_length_b                         8.8517599106
_cell_length_c                         12.5012798309
_cell_angle_alpha                      90.000000
_cell_angle_beta                       90.000000
_cell_angle_gamma                      90.000000
_cell_volume                           953.851554537
_space_group_name_H-M_alt              'P 1'
_space_group_IT_number                 1

loop_
_space_group_symop_operation_xyz
   'x, y, z'

loop_
   _atom_site_label
   _atom_site_occupancy
   _atom_site_fract_x
   _atom_site_fract_y
   _atom_site_fract_z
   _atom_site_adp_type
   _atom_site_U_iso_or_equiv
   _atom_site_type_symbol
Pb 1.0 0.99656233     0.01579167     0.00923127     Uiso  ? Pb
Pb 1.0 0.00105464     0.99865405     0.49524698     Uiso  ? Pb
Pb 1.0 0.51224714     0.49929399     0.49730529     Uiso  ? Pb
Pb 1.0 0.503436     0.51927211     0.9933502     Uiso  ? Pb
Cs 1.0 0.99679383     0.45083309     0.25666182     Uiso  ? Cs
Cs 1.0 0.0118347     0.60195374     0.75106251     Uiso  ? Cs
Cs 1.0 0.50889025     0.01508459     0.74747323     Uiso  ? Cs
Cs 1.0 0.52704812     0.95818479     0.25284407     Uiso  ? Cs
I 1.0 0.20764657     0.31133051     0.50988857     Uiso  ? I
I 1.0 0.82404703     0.68651867     0.4783817     Uiso  ? I
I 1.0 0.70891677     0.19726401     0.46698185     Uiso  ? I
I 1.0 0.30668047     0.79657669     0.55044325     Uiso  ? I
I 1.0 0.8196347     0.67547991     0.0261559     Uiso  ? I
I 1.0 0.17728675     0.29947054     0.94197783     Uiso  ? I
I 1.0 0.27695552     0.78138033     0.98888966     Uiso  ? I
I 1.0 0.69467521     0.18425661     0.03595548     Uiso  ? I
I 1.0 0.90210003     0.03255027     0.74617927     Uiso  ? I
I 1.0 0.05061172     0.99492476     0.2515632     Uiso  ? I
I 1.0 0.41453714     0.50435284     0.2513169     Uiso  ? I
I 1.0 0.54852     0.45470812     0.75179009     Uiso  ? I
