
#======================================================================
# CRYSTAL DATA
#----------------------------------------------------------------------
data_VESTA_phase_1

_chemical_name_common                  ' struc4'
_cell_length_a                         8.6197900772
_cell_length_b                         8.8517599106
_cell_length_c                         12.5012798309
_cell_angle_alpha                      90.000000
_cell_angle_beta                       90.000000
_cell_angle_gamma                      90.000000
_cell_volume                           953.851554537
_space_group_name_H-M_alt              'P 1'
_space_group_IT_number                 1

loop_
_space_group_symop_operation_xyz
   'x, y, z'

loop_
   _atom_site_label
   _atom_site_occupancy
   _atom_site_fract_x
   _atom_site_fract_y
   _atom_site_fract_z
   _atom_site_adp_type
   _atom_site_U_iso_or_equiv
   _atom_site_type_symbol
Pb 1.0 0.03163588     0.97968373     0.00902184     Uiso  ? Pb
Pb 1.0 0.95914255     0.98923395     0.50530873     Uiso  ? Pb
Pb 1.0 0.47457989     0.50581783     0.49508673     Uiso  ? Pb
Pb 1.0 0.54871608     0.51162728     0.98972967     Uiso  ? Pb
Cs 1.0 0.9873068     0.40429738     0.2542518     Uiso  ? Cs
Cs 1.0 0.96449053     0.53744645     0.75920879     Uiso  ? Cs
Cs 1.0 0.4590431     0.07316068     0.74949172     Uiso  ? Cs
Cs 1.0 0.51179863     0.96377701     0.26192269     Uiso  ? Cs
I 1.0 0.1576542     0.3408663     0.5295711     Uiso  ? I
I 1.0 0.80981246     0.68883654     0.450412     Uiso  ? I
I 1.0 0.69305523     0.25310142     0.47345081     Uiso  ? I
I 1.0 0.29653357     0.84981608     0.53489305     Uiso  ? I
I 1.0 0.89636094     0.6606933     0.03189658     Uiso  ? I
I 1.0 0.19709198     0.31056426     0.94125216     Uiso  ? I
I 1.0 0.35359225     0.81260379     0.98838136     Uiso  ? I
I 1.0 0.69446528     0.14860675     0.02881651     Uiso  ? I
I 1.0 0.94090978     0.9729345     0.75137199     Uiso  ? I
I 1.0 0.0242823     0.95405888     0.25615696     Uiso  ? I
I 1.0 0.47067637     0.53447128     0.23912583     Uiso  ? I
I 1.0 0.52360208     0.51803849     0.7500141     Uiso  ? I
