
#======================================================================
# CRYSTAL DATA
#----------------------------------------------------------------------
data_VESTA_phase_1

_chemical_name_common                  ' struc4'
_cell_length_a                         8.6197900772
_cell_length_b                         8.8517599106
_cell_length_c                         12.5012798309
_cell_angle_alpha                      90.000000
_cell_angle_beta                       90.000000
_cell_angle_gamma                      90.000000
_cell_volume                           953.851554537
_space_group_name_H-M_alt              'P 1'
_space_group_IT_number                 1

loop_
_space_group_symop_operation_xyz
   'x, y, z'

loop_
   _atom_site_label
   _atom_site_occupancy
   _atom_site_fract_x
   _atom_site_fract_y
   _atom_site_fract_z
   _atom_site_adp_type
   _atom_site_U_iso_or_equiv
   _atom_site_type_symbol
Pb 1.0 0.02851609     0.98010256     0.01010583     Uiso  ? Pb
Pb 1.0 0.96019807     0.98775575     0.50779138     Uiso  ? Pb
Pb 1.0 0.47357901     0.50752777     0.49013392     Uiso  ? Pb
Pb 1.0 0.55507274     0.51557759     0.9887458     Uiso  ? Pb
Cs 1.0 0.99025803     0.41329636     0.24898697     Uiso  ? Cs
Cs 1.0 0.96594303     0.53975839     0.76308031     Uiso  ? Cs
Cs 1.0 0.46083639     0.07766201     0.7534058     Uiso  ? Cs
Cs 1.0 0.50572576     0.95905856     0.25974998     Uiso  ? Cs
I 1.0 0.16054947     0.3423171     0.52537844     Uiso  ? I
I 1.0 0.80815829     0.69019752     0.45074977     Uiso  ? I
I 1.0 0.69177297     0.24859754     0.47507958     Uiso  ? I
I 1.0 0.29247977     0.84816383     0.53442368     Uiso  ? I
I 1.0 0.89564742     0.66200214     0.03415344     Uiso  ? I
I 1.0 0.19734871     0.3154449     0.94468379     Uiso  ? I
I 1.0 0.35445806     0.81550279     0.99186585     Uiso  ? I
I 1.0 0.69525485     0.14430602     0.02888072     Uiso  ? I
I 1.0 0.94797267     0.97316203     0.75239377     Uiso  ? I
I 1.0 0.02092814     0.94555249     0.25463983     Uiso  ? I
I 1.0 0.46710533     0.52463726     0.23668209     Uiso  ? I
I 1.0 0.52085661     0.51557798     0.74991664     Uiso  ? I
