
#======================================================================
# CRYSTAL DATA
#----------------------------------------------------------------------
data_VESTA_phase_1

_chemical_name_common                  ' struc4'
_cell_length_a                         8.6197900772
_cell_length_b                         8.8517599106
_cell_length_c                         12.5012798309
_cell_angle_alpha                      90.000000
_cell_angle_beta                       90.000000
_cell_angle_gamma                      90.000000
_cell_volume                           953.851554537
_space_group_name_H-M_alt              'P 1'
_space_group_IT_number                 1

loop_
_space_group_symop_operation_xyz
   'x, y, z'

loop_
   _atom_site_label
   _atom_site_occupancy
   _atom_site_fract_x
   _atom_site_fract_y
   _atom_site_fract_z
   _atom_site_adp_type
   _atom_site_U_iso_or_equiv
   _atom_site_type_symbol
Pb 1.0 0.99534749     0.01611278     0.00898415     Uiso  ? Pb
Pb 1.0 0.00189933     0.99868047     0.49607818     Uiso  ? Pb
Pb 1.0 0.51237867     0.49935976     0.4970435     Uiso  ? Pb
Pb 1.0 0.50451997     0.51864507     0.99378278     Uiso  ? Pb
Cs 1.0 0.99720869     0.45081429     0.25685009     Uiso  ? Cs
Cs 1.0 0.01159539     0.60461353     0.75099601     Uiso  ? Cs
Cs 1.0 0.50894079     0.0130738     0.74785717     Uiso  ? Cs
Cs 1.0 0.52733045     0.95842899     0.25311218     Uiso  ? Cs
I 1.0 0.20681967     0.31089166     0.5090707     Uiso  ? I
I 1.0 0.82618588     0.68640354     0.47874592     Uiso  ? I
I 1.0 0.70841738     0.19766166     0.46648282     Uiso  ? I
I 1.0 0.30715576     0.79600835     0.5513809     Uiso  ? I
I 1.0 0.81988168     0.67367665     0.02595365     Uiso  ? I
I 1.0 0.17814177     0.30175947     0.94022115     Uiso  ? I
I 1.0 0.27468712     0.78250015     0.98959535     Uiso  ? I
I 1.0 0.69341148     0.18384775     0.03649006     Uiso  ? I
I 1.0 0.90206616     0.03413489     0.74606297     Uiso  ? I
I 1.0 0.05062676     0.99446492     0.25134162     Uiso  ? I
I 1.0 0.41412721     0.50486159     0.25136819     Uiso  ? I
I 1.0 0.54817838     0.45203589     0.75076745     Uiso  ? I
