
#======================================================================
# CRYSTAL DATA
#----------------------------------------------------------------------
data_VESTA_phase_1

_chemical_name_common                  ' struc4'
_cell_length_a                         8.6197900772
_cell_length_b                         8.8517599106
_cell_length_c                         12.5012798309
_cell_angle_alpha                      90.000000
_cell_angle_beta                       90.000000
_cell_angle_gamma                      90.000000
_cell_volume                           953.851554537
_space_group_name_H-M_alt              'P 1'
_space_group_IT_number                 1

loop_
_space_group_symop_operation_xyz
   'x, y, z'

loop_
   _atom_site_label
   _atom_site_occupancy
   _atom_site_fract_x
   _atom_site_fract_y
   _atom_site_fract_z
   _atom_site_adp_type
   _atom_site_U_iso_or_equiv
   _atom_site_type_symbol
Pb 1.0 0.02169904     0.98761223     0.01064296     Uiso  ? Pb
Pb 1.0 0.96625907     0.98701181     0.51236026     Uiso  ? Pb
Pb 1.0 0.46918625     0.51631263     0.47987788     Uiso  ? Pb
Pb 1.0 0.56555242     0.52125562     0.98943316     Uiso  ? Pb
Cs 1.0 0.99834665     0.42901944     0.23917965     Uiso  ? Cs
Cs 1.0 0.97075279     0.54437684     0.76593557     Uiso  ? Cs
Cs 1.0 0.46551098     0.0876438     0.76212647     Uiso  ? Cs
Cs 1.0 0.49222985     0.94905381     0.25750726     Uiso  ? Cs
I 1.0 0.16694714     0.3410613     0.51641224     Uiso  ? I
I 1.0 0.8002852     0.69112274     0.45435491     Uiso  ? I
I 1.0 0.69051434     0.23025142     0.4783678     Uiso  ? I
I 1.0 0.28636078     0.84154862     0.53186639     Uiso  ? I
I 1.0 0.88421587     0.66177652     0.03677155     Uiso  ? I
I 1.0 0.20248678     0.32181238     0.95668439     Uiso  ? I
I 1.0 0.35867901     0.81957553     0.99731852     Uiso  ? I
I 1.0 0.69800883     0.14224678     0.02776577     Uiso  ? I
I 1.0 0.96030728     0.97434137     0.75714332     Uiso  ? I
I 1.0 0.01833758     0.93314346     0.25229665     Uiso  ? I
I 1.0 0.45675065     0.50085689     0.23314587     Uiso  ? I
I 1.0 0.51666524     0.51178543     0.74450301     Uiso  ? I
