
#======================================================================
# CRYSTAL DATA
#----------------------------------------------------------------------
data_VESTA_phase_1

_chemical_name_common                  ' struc4'
_cell_length_a                         8.6197900772
_cell_length_b                         8.8517599106
_cell_length_c                         12.5012798309
_cell_angle_alpha                      90.000000
_cell_angle_beta                       90.000000
_cell_angle_gamma                      90.000000
_cell_volume                           953.851554537
_space_group_name_H-M_alt              'P 1'
_space_group_IT_number                 1

loop_
_space_group_symop_operation_xyz
   'x, y, z'

loop_
   _atom_site_label
   _atom_site_occupancy
   _atom_site_fract_x
   _atom_site_fract_y
   _atom_site_fract_z
   _atom_site_adp_type
   _atom_site_U_iso_or_equiv
   _atom_site_type_symbol
Pb 1.0 0.02099488     0.98905491     0.01057104     Uiso  ? Pb
Pb 1.0 0.96716455     0.98718578     0.51274767     Uiso  ? Pb
Pb 1.0 0.46866181     0.51757147     0.47878083     Uiso  ? Pb
Pb 1.0 0.5663438     0.52168772     0.98964539     Uiso  ? Pb
Cs 1.0 0.99951479     0.43039546     0.23833488     Uiso  ? Cs
Cs 1.0 0.97150904     0.54482195     0.76575531     Uiso  ? Cs
Cs 1.0 0.46608328     0.0887593     0.76310537     Uiso  ? Cs
Cs 1.0 0.49066004     0.9479445     0.25752062     Uiso  ? Cs
I 1.0 0.16756502     0.3404937     0.51538732     Uiso  ? I
I 1.0 0.79905368     0.69107586     0.45502103     Uiso  ? I
I 1.0 0.69022464     0.22769226     0.47873907     Uiso  ? I
I 1.0 0.28613331     0.84043342     0.531494     Uiso  ? I
I 1.0 0.88212303     0.66178634     0.03674079     Uiso  ? I
I 1.0 0.20338801     0.32214442     0.95848512     Uiso  ? I
I 1.0 0.35933138     0.81977055     0.99770951     Uiso  ? I
I 1.0 0.69835464     0.14268908     0.02756896     Uiso  ? I
I 1.0 0.96152479     0.97456277     0.75788133     Uiso  ? I
I 1.0 0.01842579     0.93221668     0.25221103     Uiso  ? I
I 1.0 0.45533149     0.49782954     0.23279762     Uiso  ? I
I 1.0 0.51636772     0.51151375     0.74355853     Uiso  ? I
