
#======================================================================
# CRYSTAL DATA
#----------------------------------------------------------------------
data_VESTA_phase_1

_chemical_name_common                  ' struc4'
_cell_length_a                         8.6197900772
_cell_length_b                         8.8517599106
_cell_length_c                         12.5012798309
_cell_angle_alpha                      90.000000
_cell_angle_beta                       90.000000
_cell_angle_gamma                      90.000000
_cell_volume                           953.851554537
_space_group_name_H-M_alt              'P 1'
_space_group_IT_number                 1

loop_
_space_group_symop_operation_xyz
   'x, y, z'

loop_
   _atom_site_label
   _atom_site_occupancy
   _atom_site_fract_x
   _atom_site_fract_y
   _atom_site_fract_z
   _atom_site_adp_type
   _atom_site_U_iso_or_equiv
   _atom_site_type_symbol
Pb 1.0 0.0206582     0.98981472     0.01052715     Uiso  ? Pb
Pb 1.0 0.96762171     0.98729517     0.51292545     Uiso  ? Pb
Pb 1.0 0.46840809     0.5182053     0.47824678     Uiso  ? Pb
Pb 1.0 0.56669106     0.5218834     0.98975379     Uiso  ? Pb
Cs 1.0 0.00011687     0.43103895     0.23794736     Uiso  ? Cs
Cs 1.0 0.97190447     0.54503256     0.76562492     Uiso  ? Cs
Cs 1.0 0.46636915     0.08930707     0.76358545     Uiso  ? Cs
Cs 1.0 0.48988174     0.94739967     0.2575523     Uiso  ? Cs
I 1.0 0.16785487     0.34017386     0.5148794     Uiso  ? I
I 1.0 0.79842314     0.691045     0.45537182     Uiso  ? I
I 1.0 0.69005529     0.22640092     0.47892275     Uiso  ? I
I 1.0 0.28607188     0.83984609     0.53130609     Uiso  ? I
I 1.0 0.88103546     0.66181691     0.03669362     Uiso  ? I
I 1.0 0.20385292     0.32227472     0.95941063     Uiso  ? I
I 1.0 0.35966364     0.81984221     0.99788056     Uiso  ? I
I 1.0 0.69852399     0.14296588     0.02746951     Uiso  ? I
I 1.0 0.96211577     0.97468105     0.75825825     Uiso  ? I
I 1.0 0.01849893     0.93179531     0.25218747     Uiso  ? I
I 1.0 0.45461137     0.4963011     0.23262322     Uiso  ? I
I 1.0 0.51623786     0.51139424     0.74307378     Uiso  ? I
