
#======================================================================
# CRYSTAL DATA
#----------------------------------------------------------------------
data_VESTA_phase_1

_chemical_name_common                  ' struc4'
_cell_length_a                         8.6197900772
_cell_length_b                         8.8517599106
_cell_length_c                         12.5012798309
_cell_angle_alpha                      90.000000
_cell_angle_beta                       90.000000
_cell_angle_gamma                      90.000000
_cell_volume                           953.851554537
_space_group_name_H-M_alt              'P 1'
_space_group_IT_number                 1

loop_
_space_group_symop_operation_xyz
   'x, y, z'

loop_
   _atom_site_label
   _atom_site_occupancy
   _atom_site_fract_x
   _atom_site_fract_y
   _atom_site_fract_z
   _atom_site_adp_type
   _atom_site_U_iso_or_equiv
   _atom_site_type_symbol
Pb 1.0 0.02033292     0.99059913     0.01047855     Uiso  ? Pb
Pb 1.0 0.96808043     0.98741963     0.51309218     Uiso  ? Pb
Pb 1.0 0.46816084     0.51884048     0.47772315     Uiso  ? Pb
Pb 1.0 0.56700387     0.522065     0.98986262     Uiso  ? Pb
Cs 1.0 0.00073069     0.43165246     0.23758409     Uiso  ? Cs
Cs 1.0 0.97231174     0.54523475     0.76546796     Uiso  ? Cs
Cs 1.0 0.46665455     0.08984759     0.76405872     Uiso  ? Cs
Cs 1.0 0.48910842     0.94686194     0.25760117     Uiso  ? Cs
I 1.0 0.16813108     0.33982939     0.51437503     Uiso  ? I
I 1.0 0.79778449     0.6910103     0.45573394     Uiso  ? I
I 1.0 0.68986893     0.22510384     0.47910509     Uiso  ? I
I 1.0 0.28604617     0.83923891     0.53111761     Uiso  ? I
I 1.0 0.87992414     0.6618675     0.03662517     Uiso  ? I
I 1.0 0.20432551     0.32238101     0.96035149     Uiso  ? I
I 1.0 0.3599988     0.8198964     0.99803489     Uiso  ? I
I 1.0 0.69869015     0.14327977     0.02736989     Uiso  ? I
I 1.0 0.96269539     0.97480435     0.75863934     Uiso  ? I
I 1.0 0.01859108     0.93140173     0.25217706     Uiso  ? I
I 1.0 0.45388519     0.4947635     0.23244779     Uiso  ? I
I 1.0 0.51612092     0.51128591     0.74258218     Uiso  ? I
