
#======================================================================
# CRYSTAL DATA
#----------------------------------------------------------------------
data_VESTA_phase_1

_chemical_name_common                  ' struc4'
_cell_length_a                         8.6197900772
_cell_length_b                         8.8517599106
_cell_length_c                         12.5012798309
_cell_angle_alpha                      90.000000
_cell_angle_beta                       90.000000
_cell_angle_gamma                      90.000000
_cell_volume                           953.851554537
_space_group_name_H-M_alt              'P 1'
_space_group_IT_number                 1

loop_
_space_group_symop_operation_xyz
   'x, y, z'

loop_
   _atom_site_label
   _atom_site_occupancy
   _atom_site_fract_x
   _atom_site_fract_y
   _atom_site_fract_z
   _atom_site_adp_type
   _atom_site_U_iso_or_equiv
   _atom_site_type_symbol
Pb 1.0 0.01972005     0.99223834     0.01036909     Uiso  ? Pb
Pb 1.0 0.96899822     0.98771409     0.51339129     Uiso  ? Pb
Pb 1.0 0.46768782     0.52010996     0.47670957     Uiso  ? Pb
Pb 1.0 0.56751953     0.52238419     0.99007822     Uiso  ? Pb
Cs 1.0 0.00199185     0.43278899     0.23693278     Uiso  ? Cs
Cs 1.0 0.97316235     0.54561224     0.76507538     Uiso  ? Cs
Cs 1.0 0.46722296     0.09090503     0.76498305     Uiso  ? Cs
Cs 1.0 0.48757975     0.94581035     0.25775098     Uiso  ? Cs
I 1.0 0.16864014     0.33906515     0.51337783     Uiso  ? I
I 1.0 0.79648821     0.6909319     0.45649113     Uiso  ? I
I 1.0 0.6894435     0.22249751     0.47946522     Uiso  ? I
I 1.0 0.28610474     0.83796612     0.53074059     Uiso  ? I
I 1.0 0.87764205     0.66203723     0.03642453     Uiso  ? I
I 1.0 0.20528932     0.32252157     0.96227564     Uiso  ? I
I 1.0 0.36067416     0.81995221     0.99829222     Uiso  ? I
I 1.0 0.69901057     0.14401857     0.02717213     Uiso  ? I
I 1.0 0.96382095     0.97506609     0.7594105     Uiso  ? I
I 1.0 0.0188313     0.93069706     0.25219644     Uiso  ? I
I 1.0 0.45241742     0.49166315     0.23209192     Uiso  ? I
I 1.0 0.5159261     0.51110336     0.74158293     Uiso  ? I
