
#======================================================================
# CRYSTAL DATA
#----------------------------------------------------------------------
data_VESTA_phase_1

_chemical_name_common                  ' struc4'
_cell_length_a                         8.6197900772
_cell_length_b                         8.8517599106
_cell_length_c                         12.5012798309
_cell_angle_alpha                      90.000000
_cell_angle_beta                       90.000000
_cell_angle_gamma                      90.000000
_cell_volume                           953.851554537
_space_group_name_H-M_alt              'P 1'
_space_group_IT_number                 1

loop_
_space_group_symop_operation_xyz
   'x, y, z'

loop_
   _atom_site_label
   _atom_site_occupancy
   _atom_site_fract_x
   _atom_site_fract_y
   _atom_site_fract_z
   _atom_site_adp_type
   _atom_site_U_iso_or_equiv
   _atom_site_type_symbol
Pb 1.0 0.01916264     0.9939659     0.01024634     Uiso  ? Pb
Pb 1.0 0.96991004     0.98806933     0.51364275     Uiso  ? Pb
Pb 1.0 0.46724654     0.52137083     0.47574453     Uiso  ? Pb
Pb 1.0 0.56787797     0.5226412     0.99028593     Uiso  ? Pb
Cs 1.0 0.00329432     0.43380454     0.23638478     Uiso  ? Cs
Cs 1.0 0.97406176     0.54595118     0.76457991     Uiso  ? Cs
Cs 1.0 0.46778646     0.09192742     0.76587534     Uiso  ? Cs
Cs 1.0 0.48607972     0.9447942     0.25797063     Uiso  ? Cs
I 1.0 0.16908724     0.33819828     0.51239799     Uiso  ? I
I 1.0 0.79517554     0.69084655     0.4572907     Uiso  ? I
I 1.0 0.68894593     0.21988349     0.47981892     Uiso  ? I
I 1.0 0.28631184     0.8366184     0.53036589     Uiso  ? I
I 1.0 0.87530208     0.66231192     0.03614078     Uiso  ? I
I 1.0 0.20626848     0.32256515     0.96424923     Uiso  ? I
I 1.0 0.36135041     0.81993821     0.99847933     Uiso  ? I
I 1.0 0.69931174     0.14490522     0.02697966     Uiso  ? I
I 1.0 0.96490309     0.97534772     0.76018689     Uiso  ? I
I 1.0 0.01914361     0.93010098     0.2522703     Uiso  ? I
I 1.0 0.45093518     0.48853338     0.2317264     Uiso  ? I
I 1.0 0.51578477     0.51096666     0.74056961     Uiso  ? I
