
#======================================================================
# CRYSTAL DATA
#----------------------------------------------------------------------
data_VESTA_phase_1

_chemical_name_common                  ' struc4'
_cell_length_a                         8.6197900772
_cell_length_b                         8.8517599106
_cell_length_c                         12.5012798309
_cell_angle_alpha                      90.000000
_cell_angle_beta                       90.000000
_cell_angle_gamma                      90.000000
_cell_volume                           953.851554537
_space_group_name_H-M_alt              'P 1'
_space_group_IT_number                 1

loop_
_space_group_symop_operation_xyz
   'x, y, z'

loop_
   _atom_site_label
   _atom_site_occupancy
   _atom_site_fract_x
   _atom_site_fract_y
   _atom_site_fract_z
   _atom_site_adp_type
   _atom_site_U_iso_or_equiv
   _atom_site_type_symbol
Pb 1.0 0.01804974     0.99862528     0.00990731     Uiso  ? Pb
Pb 1.0 0.97211903     0.9892222     0.51405054     Uiso  ? Pb
Pb 1.0 0.46629843     0.52442911     0.47356983     Uiso  ? Pb
Pb 1.0 0.5680056     0.5229813     0.99073242     Uiso  ? Pb
Cs 1.0 0.00669139     0.43583028     0.23547174     Uiso  ? Cs
Cs 1.0 0.97652606     0.54661058     0.76291152     Uiso  ? Cs
Cs 1.0 0.46916301     0.09430521     0.76794969     Uiso  ? Cs
Cs 1.0 0.4824905     0.94243552     0.25882206     Uiso  ? Cs
I 1.0 0.16990819     0.33557644     0.51004448     Uiso  ? I
I 1.0 0.79189865     0.69064352     0.45945574     Uiso  ? I
I 1.0 0.68737089     0.21336635     0.48067225     Uiso  ? I
I 1.0 0.28747509     0.83294318     0.52945877     Uiso  ? I
I 1.0 0.86938814     0.66355122     0.03509351     Uiso  ? I
I 1.0 0.20871553     0.32225404     0.96934865     Uiso  ? I
I 1.0 0.3630021     0.81960412     0.99862949     Uiso  ? I
I 1.0 0.69995667     0.14776071     0.02654432     Uiso  ? I
I 1.0 0.96742389     0.97613394     0.76209477     Uiso  ? I
I 1.0 0.02021859     0.92907112     0.25269505     Uiso  ? I
I 1.0 0.44722073     0.48061132     0.23075743     Uiso  ? I
I 1.0 0.51567034     0.5108295     0.73803007     Uiso  ? I
