
#======================================================================
# CRYSTAL DATA
#----------------------------------------------------------------------
data_VESTA_phase_1

_chemical_name_common                  ' struc4'
_cell_length_a                         8.6197900772
_cell_length_b                         8.8517599106
_cell_length_c                         12.5012798309
_cell_angle_alpha                      90.000000
_cell_angle_beta                       90.000000
_cell_angle_gamma                      90.000000
_cell_volume                           953.851554537
_space_group_name_H-M_alt              'P 1'
_space_group_IT_number                 1

loop_
_space_group_symop_operation_xyz
   'x, y, z'

loop_
   _atom_site_label
   _atom_site_occupancy
   _atom_site_fract_x
   _atom_site_fract_y
   _atom_site_fract_z
   _atom_site_adp_type
   _atom_site_U_iso_or_equiv
   _atom_site_type_symbol
Pb 1.0 0.01788032     0.9996078     0.00983829     Uiso  ? Pb
Pb 1.0 0.97254296     0.98949789     0.51409279     Uiso  ? Pb
Pb 1.0 0.46613716     0.52501582     0.4731791     Uiso  ? Pb
Pb 1.0 0.56788841     0.5229929     0.99080395     Uiso  ? Pb
Cs 1.0 0.00738724     0.43615269     0.23536587     Uiso  ? Cs
Cs 1.0 0.97705561     0.54670796     0.76250844     Uiso  ? Cs
Cs 1.0 0.46943192     0.09474721     0.7683358     Uiso  ? Cs
Cs 1.0 0.48180558     0.9419989     0.25904244     Uiso  ? Cs
I 1.0 0.17001841     0.33497469     0.50959295     Uiso  ? I
I 1.0 0.79125629     0.69061005     0.45991412     Uiso  ? I
I 1.0 0.68699892     0.21207241     0.48083703     Uiso  ? I
I 1.0 0.28781426     0.83216098     0.52928598     Uiso  ? I
I 1.0 0.86822369     0.66390558     0.03483161     Uiso  ? I
I 1.0 0.20919469     0.32212025     0.97038767     Uiso  ? I
I 1.0 0.36331861     0.81948827     0.99860453     Uiso  ? I
I 1.0 0.70006406     0.14843867     0.02646827     Uiso  ? I
I 1.0 0.96789751     0.97630418     0.76246188     Uiso  ? I
I 1.0 0.02048076     0.9289416     0.25282089     Uiso  ? I
I 1.0 0.44648471     0.47901509     0.23055408     Uiso  ? I
I 1.0 0.51568841     0.51083721     0.73752827     Uiso  ? I
