
#======================================================================
# CRYSTAL DATA
#----------------------------------------------------------------------
data_VESTA_phase_1

_chemical_name_common                  ' struc4'
_cell_length_a                         8.6197900772
_cell_length_b                         8.8517599106
_cell_length_c                         12.5012798309
_cell_angle_alpha                      90.000000
_cell_angle_beta                       90.000000
_cell_angle_gamma                      90.000000
_cell_volume                           953.851554537
_space_group_name_H-M_alt              'P 1'
_space_group_IT_number                 1

loop_
_space_group_symop_operation_xyz
   'x, y, z'

loop_
   _atom_site_label
   _atom_site_occupancy
   _atom_site_fract_x
   _atom_site_fract_y
   _atom_site_fract_z
   _atom_site_adp_type
   _atom_site_U_iso_or_equiv
   _atom_site_type_symbol
Pb 1.0 0.01759858     0.00161529     0.00970337     Uiso  ? Pb
Pb 1.0 0.97336816     0.99009384     0.51413699     Uiso  ? Pb
Pb 1.0 0.46584416     0.52615475     0.47244457     Uiso  ? Pb
Pb 1.0 0.56750263     0.52295542     0.99092472     Uiso  ? Pb
Cs 1.0 0.00878491     0.43672153     0.23522823     Uiso  ? Cs
Cs 1.0 0.97815054     0.54686678     0.76163831     Uiso  ? Cs
Cs 1.0 0.4699618     0.09559403     0.76907641     Uiso  ? Cs
Cs 1.0 0.48047429     0.94116473     0.25953042     Uiso  ? Cs
I 1.0 0.17018393     0.33369463     0.50871143     Uiso  ? I
I 1.0 0.78999737     0.690556     0.46085272     Uiso  ? I
I 1.0 0.68619909     0.20949889     0.48116041     Uiso  ? I
I 1.0 0.28859207     0.83055753     0.52895229     Uiso  ? I
I 1.0 0.86594033     0.66472972     0.03426222     Uiso  ? I
I 1.0 0.21013317     0.32178173     0.97247436     Uiso  ? I
I 1.0 0.36393129     0.81921139     0.99850007     Uiso  ? I
I 1.0 0.70025471     0.14989739     0.02633047     Uiso  ? I
I 1.0 0.96881516     0.97665553     0.76317238     Uiso  ? I
I 1.0 0.0210485     0.9287561     0.25311273     Uiso  ? I
I 1.0 0.44502982     0.4758185     0.23013911     Uiso  ? I
I 1.0 0.5157647     0.51088719     0.73653803     Uiso  ? I
