
#======================================================================
# CRYSTAL DATA
#----------------------------------------------------------------------
data_VESTA_phase_1

_chemical_name_common                  ' struc4'
_cell_length_a                         8.6197900772
_cell_length_b                         8.8517599106
_cell_length_c                         12.5012798309
_cell_angle_alpha                      90.000000
_cell_angle_beta                       90.000000
_cell_angle_gamma                      90.000000
_cell_volume                           953.851554537
_space_group_name_H-M_alt              'P 1'
_space_group_IT_number                 1

loop_
_space_group_symop_operation_xyz
   'x, y, z'

loop_
   _atom_site_label
   _atom_site_occupancy
   _atom_site_fract_x
   _atom_site_fract_y
   _atom_site_fract_z
   _atom_site_adp_type
   _atom_site_U_iso_or_equiv
   _atom_site_type_symbol
Pb 1.0 0.01723191     0.00789403     0.00936264     Uiso  ? Pb
Pb 1.0 0.97563381     0.99222951     0.51394409     Uiso  ? Pb
Pb 1.0 0.46521028     0.52920085     0.47062991     Uiso  ? Pb
Pb 1.0 0.56510068     0.52233381     0.99107896     Uiso  ? Pb
Cs 1.0 0.01290718     0.43789852     0.23536955     Uiso  ? Cs
Cs 1.0 0.98171051     0.54705332     0.75857601     Uiso  ? Cs
Cs 1.0 0.47147392     0.0978065     0.77101568     Uiso  ? Cs
Cs 1.0 0.47682477     0.93900267     0.26132914     Uiso  ? Cs
I 1.0 0.17024306     0.32926262     0.50626582     Uiso  ? I
I 1.0 0.7865324     0.69054203     0.46380959     Uiso  ? I
I 1.0 0.68338532     0.20192016     0.48207611     Uiso  ? I
I 1.0 0.29161218     0.82554408     0.52807519     Uiso  ? I
I 1.0 0.85967967     0.6681487     0.03226565     Uiso  ? I
I 1.0 0.21270799     0.3202085     0.97870444     Uiso  ? I
I 1.0 0.36555072     0.81806998     0.99776514     Uiso  ? I
I 1.0 0.70062777     0.15504627     0.02605812     Uiso  ? I
I 1.0 0.97134123     0.97778701     0.76503912     Uiso  ? I
I 1.0 0.02305836     0.9287675     0.25429174     Uiso  ? I
I 1.0 0.44089814     0.46626645     0.22885883     Uiso  ? I
I 1.0 0.51630264     0.51130359     0.73372317     Uiso  ? I
