
#======================================================================
# CRYSTAL DATA
#----------------------------------------------------------------------
data_VESTA_phase_1

_chemical_name_common                  ' struc4'
_cell_length_a                         8.6197900772
_cell_length_b                         8.8517599106
_cell_length_c                         12.5012798309
_cell_angle_alpha                      90.000000
_cell_angle_beta                       90.000000
_cell_angle_gamma                      90.000000
_cell_volume                           953.851554537
_space_group_name_H-M_alt              'P 1'
_space_group_IT_number                 1

loop_
_space_group_symop_operation_xyz
   'x, y, z'

loop_
   _atom_site_label
   _atom_site_occupancy
   _atom_site_fract_x
   _atom_site_fract_y
   _atom_site_fract_z
   _atom_site_adp_type
   _atom_site_U_iso_or_equiv
   _atom_site_type_symbol
Pb 1.0 0.01816483     0.01858125     0.00921771     Uiso  ? Pb
Pb 1.0 0.9785994     0.99683034     0.51257759     Uiso  ? Pb
Pb 1.0 0.46505264     0.53236155     0.46887253     Uiso  ? Pb
Pb 1.0 0.55729916     0.51965264     0.99055915     Uiso  ? Pb
Cs 1.0 0.01861021     0.43868952     0.23712326     Uiso  ? Cs
Cs 1.0 0.98839385     0.54645317     0.75239673     Uiso  ? Cs
Cs 1.0 0.47366814     0.10024033     0.77314842     Uiso  ? Cs
Cs 1.0 0.47210239     0.93663666     0.26505503     Uiso  ? Cs
I 1.0 0.16906747     0.32016691     0.50306218     Uiso  ? I
I 1.0 0.7823683     0.69116872     0.46894415     Uiso  ? I
I 1.0 0.67771438     0.18993027     0.48347076     Uiso  ? I
I 1.0 0.29784956     0.81749603     0.52726473     Uiso  ? I
I 1.0 0.85202757     0.67661865     0.02838836     Uiso  ? I
I 1.0 0.21582996     0.3159495     0.98819372     Uiso  ? I
I 1.0 0.36713286     0.81557147     0.99534667     Uiso  ? I
I 1.0 0.70067737     0.1657325     0.02619981     Uiso  ? I
I 1.0 0.97485323     0.97989006     0.76687785     Uiso  ? I
I 1.0 0.02715341     0.93051237     0.25709712     Uiso  ? I
I 1.0 0.43549943     0.45107828     0.22695394     Uiso  ? I
I 1.0 0.51807191     0.51273703     0.72981865     Uiso  ? I
