
#======================================================================
# CRYSTAL DATA
#----------------------------------------------------------------------
data_VESTA_phase_1

_chemical_name_common                  ' struc4'
_cell_length_a                         8.6197900772
_cell_length_b                         8.8517599106
_cell_length_c                         12.5012798309
_cell_angle_alpha                      90.000000
_cell_angle_beta                       90.000000
_cell_angle_gamma                      90.000000
_cell_volume                           953.851554537
_space_group_name_H-M_alt              'P 1'
_space_group_IT_number                 1

loop_
_space_group_symop_operation_xyz
   'x, y, z'

loop_
   _atom_site_label
   _atom_site_occupancy
   _atom_site_fract_x
   _atom_site_fract_y
   _atom_site_fract_z
   _atom_site_adp_type
   _atom_site_U_iso_or_equiv
   _atom_site_type_symbol
Pb 1.0 0.0187467     0.02165178     0.00930823     Uiso  ? Pb
Pb 1.0 0.97928109     0.99841322     0.51194317     Uiso  ? Pb
Pb 1.0 0.46525984     0.53267154     0.46861989     Uiso  ? Pb
Pb 1.0 0.55427702     0.51853318     0.99022209     Uiso  ? Pb
Cs 1.0 0.01979212     0.43880303     0.23792462     Uiso  ? Cs
Cs 1.0 0.9905154     0.54608527     0.75038035     Uiso  ? Cs
Cs 1.0 0.4742388     0.10063874     0.77349838     Uiso  ? Cs
Cs 1.0 0.47107405     0.93623922     0.26623648     Uiso  ? Cs
I 1.0 0.16848663     0.31712234     0.50235539     Uiso  ? I
I 1.0 0.78160812     0.69151261     0.47046415     Uiso  ? I
I 1.0 0.67588518     0.18653574     0.48386908     Uiso  ? I
I 1.0 0.29968685     0.81543901     0.52724159     Uiso  ? I
I 1.0 0.85039113     0.67960875     0.02716638     Uiso  ? I
I 1.0 0.21645256     0.31438392     0.99062368     Uiso  ? I
I 1.0 0.36723685     0.81482162     0.99440653     Uiso  ? I
I 1.0 0.70061314     0.16928331     0.02640703     Uiso  ? I
I 1.0 0.97576234     0.98057562     0.76707206     Uiso  ? I
I 1.0 0.02847936     0.93141459     0.25807616     Uiso  ? I
I 1.0 0.4344322     0.4468552     0.22655494     Uiso  ? I
I 1.0 0.51876383     0.51328834     0.72890046     Uiso  ? I
