
#======================================================================
# CRYSTAL DATA
#----------------------------------------------------------------------
data_VESTA_phase_1

_chemical_name_common                  ' struc4'
_cell_length_a                         8.6197900772
_cell_length_b                         8.8517599106
_cell_length_c                         12.5012798309
_cell_angle_alpha                      90.000000
_cell_angle_beta                       90.000000
_cell_angle_gamma                      90.000000
_cell_volume                           953.851554537
_space_group_name_H-M_alt              'P 1'
_space_group_IT_number                 1

loop_
_space_group_symop_operation_xyz
   'x, y, z'

loop_
   _atom_site_label
   _atom_site_occupancy
   _atom_site_fract_x
   _atom_site_fract_y
   _atom_site_fract_z
   _atom_site_adp_type
   _atom_site_U_iso_or_equiv
   _atom_site_type_symbol
Pb 1.0 0.01941662     0.02457957     0.00946086     Uiso  ? Pb
Pb 1.0 0.97986708     5.741e-05     0.51122397     Uiso  ? Pb
Pb 1.0 0.4656036     0.5326325     0.46847478     Uiso  ? Pb
Pb 1.0 0.55107201     0.51732503     0.98981226     Uiso  ? Pb
Cs 1.0 0.0206503     0.43891829     0.23881461     Uiso  ? Cs
Cs 1.0 0.99266096     0.54564846     0.74833051     Uiso  ? Cs
Cs 1.0 0.47477061     0.10087895     0.77371356     Uiso  ? Cs
Cs 1.0 0.47024103     0.93598365     0.26740428     Uiso  ? Cs
I 1.0 0.16784849     0.31398923     0.50177701     Uiso  ? I
I 1.0 0.78108627     0.69191046     0.47194918     Uiso  ? I
I 1.0 0.67403234     0.18325965     0.48425869     Uiso  ? I
I 1.0 0.30138636     0.81364866     0.52734023     Uiso  ? I
I 1.0 0.84898166     0.68269075     0.02593154     Uiso  ? I
I 1.0 0.21694135     0.31275265     0.99279707     Uiso  ? I
I 1.0 0.36713521     0.81413384     0.99340117     Uiso  ? I
I 1.0 0.70055029     0.17291076     0.02668886     Uiso  ? I
I 1.0 0.97661449     0.98128662     0.76710412     Uiso  ? I
I 1.0 0.02981959     0.9324758     0.25908817     Uiso  ? I
I 1.0 0.43368366     0.44284173     0.22627892     Uiso  ? I
I 1.0 0.51950935     0.51386526     0.72811996     Uiso  ? I
