
#======================================================================
# CRYSTAL DATA
#----------------------------------------------------------------------
data_VESTA_phase_1

_chemical_name_common                  ' struc4'
_cell_length_a                         8.6197900772
_cell_length_b                         8.8517599106
_cell_length_c                         12.5012798309
_cell_angle_alpha                      90.000000
_cell_angle_beta                       90.000000
_cell_angle_gamma                      90.000000
_cell_volume                           953.851554537
_space_group_name_H-M_alt              'P 1'
_space_group_IT_number                 1

loop_
_space_group_symop_operation_xyz
   'x, y, z'

loop_
   _atom_site_label
   _atom_site_occupancy
   _atom_site_fract_x
   _atom_site_fract_y
   _atom_site_fract_z
   _atom_site_adp_type
   _atom_site_U_iso_or_equiv
   _atom_site_type_symbol
Pb 1.0 0.99131926     0.01724784     0.00766422     Uiso  ? Pb
Pb 1.0 0.00499571     0.99897147     0.49923473     Uiso  ? Pb
Pb 1.0 0.51257504     0.49958535     0.49619853     Uiso  ? Pb
Pb 1.0 0.50790548     0.51594496     0.99538905     Uiso  ? Pb
Cs 1.0 0.99826275     0.45051607     0.25732648     Uiso  ? Cs
Cs 1.0 0.01087788     0.61310949     0.75075121     Uiso  ? Cs
Cs 1.0 0.5081103     0.00674464     0.74953387     Uiso  ? Cs
Cs 1.0 0.52793775     0.95883659     0.25408904     Uiso  ? Cs
I 1.0 0.20366965     0.30902483     0.5066356     Uiso  ? I
I 1.0 0.83317729     0.68619469     0.47984806     Uiso  ? I
I 1.0 0.70645615     0.19907785     0.46467833     Uiso  ? I
I 1.0 0.3086527     0.79398798     0.5541709     Uiso  ? I
I 1.0 0.82061547     0.66810533     0.02533488     Uiso  ? I
I 1.0 0.18135095     0.30940613     0.93466435     Uiso  ? I
I 1.0 0.26782336     0.78636211     0.99167417     Uiso  ? I
I 1.0 0.68835717     0.18315136     0.03829604     Uiso  ? I
I 1.0 0.90334001     0.0391483     0.74576318     Uiso  ? I
I 1.0 0.05098208     0.99293432     0.25060681     Uiso  ? I
I 1.0 0.41347883     0.5067807     0.25130015     Uiso  ? I
I 1.0 0.54735011     0.44340103     0.74724518     Uiso  ? I
