
#======================================================================
# CRYSTAL DATA
#----------------------------------------------------------------------
data_VESTA_phase_1

_chemical_name_common                  ' struc4'
_cell_length_a                         8.6197900772
_cell_length_b                         8.8517599106
_cell_length_c                         12.5012798309
_cell_angle_alpha                      90.000000
_cell_angle_beta                       90.000000
_cell_angle_gamma                      90.000000
_cell_volume                           953.851554537
_space_group_name_H-M_alt              'P 1'
_space_group_IT_number                 1

loop_
_space_group_symop_operation_xyz
   'x, y, z'

loop_
   _atom_site_label
   _atom_site_occupancy
   _atom_site_fract_x
   _atom_site_fract_y
   _atom_site_fract_z
   _atom_site_adp_type
   _atom_site_U_iso_or_equiv
   _atom_site_type_symbol
Pb 1.0 0.02216555     0.03391195     0.01055615     Uiso  ? Pb
Pb 1.0 0.98124487     0.00670589     0.50778241     Uiso  ? Pb
Pb 1.0 0.46850495     0.52877426     0.46879185     Uiso  ? Pb
Pb 1.0 0.53782     0.51235348     0.98759985     Uiso  ? Pb
Cs 1.0 0.02039032     0.43990661     0.24288884     Uiso  ? Cs
Cs 1.0 0.00130908     0.54352112     0.74015986     Uiso  ? Cs
Cs 1.0 0.47657362     0.10024846     0.77331076     Uiso  ? Cs
Cs 1.0 0.46894768     0.9362076     0.27152599     Uiso  ? Cs
I 1.0 0.16545349     0.3015298     0.50076201     Uiso  ? I
I 1.0 0.78115415     0.69366995     0.47728144     Uiso  ? I
I 1.0 0.66654493     0.17158761     0.48577013     Uiso  ? I
I 1.0 0.30592049     0.80969021     0.52905549     Uiso  ? I
I 1.0 0.84445883     0.69465819     0.02093067     Uiso  ? I
I 1.0 0.21801472     0.30666968     0.99849504     Uiso  ? I
I 1.0 0.36438725     0.81256979     0.98906764     Uiso  ? I
I 1.0 0.70085107     0.18740036     0.02845282     Uiso  ? I
I 1.0 0.97958323     0.9844487     0.76587813     Uiso  ? I
I 1.0 0.03506925     0.93812497     0.2630674     Uiso  ? I
I 1.0 0.43414661     0.42927089     0.22681433     Uiso  ? I
I 1.0 0.52284885     0.51608808     0.72648055     Uiso  ? I
