
#======================================================================
# CRYSTAL DATA
#----------------------------------------------------------------------
data_VESTA_phase_1

_chemical_name_common                  ' struc4'
_cell_length_a                         8.6197900772
_cell_length_b                         8.8517599106
_cell_length_c                         12.5012798309
_cell_angle_alpha                      90.000000
_cell_angle_beta                       90.000000
_cell_angle_gamma                      90.000000
_cell_volume                           953.851554537
_space_group_name_H-M_alt              'P 1'
_space_group_IT_number                 1

loop_
_space_group_symop_operation_xyz
   'x, y, z'

loop_
   _atom_site_label
   _atom_site_occupancy
   _atom_site_fract_x
   _atom_site_fract_y
   _atom_site_fract_z
   _atom_site_adp_type
   _atom_site_U_iso_or_equiv
   _atom_site_type_symbol
Pb 1.0 0.02314507     0.03703621     0.01150173     Uiso  ? Pb
Pb 1.0 0.98122321     0.0104473     0.50536151     Uiso  ? Pb
Pb 1.0 0.471843     0.52317655     0.46971748     Uiso  ? Pb
Pb 1.0 0.52964748     0.50964276     0.98575512     Uiso  ? Pb
Cs 1.0 0.01688713     0.44143245     0.24574308     Uiso  ? Cs
Cs 1.0 0.00701867     0.54205326     0.73497173     Uiso  ? Cs
Cs 1.0 0.47760838     0.09842605     0.7720575     Uiso  ? Cs
Cs 1.0 0.46990034     0.93722278     0.27339729     Uiso  ? Cs
I 1.0 0.16494999     0.29460845     0.50117567     Uiso  ? I
I 1.0 0.78265499     0.69445623     0.48012919     Uiso  ? I
I 1.0 0.6614599     0.16537636     0.48680881     Uiso  ? I
I 1.0 0.30663453     0.80962075     0.53128348     Uiso  ? I
I 1.0 0.8413689     0.70130828     0.01758572     Uiso  ? I
I 1.0 0.21864429     0.3043767     0.99949438     Uiso  ? I
I 1.0 0.36025424     0.81300329     0.98619159     Uiso  ? I
I 1.0 0.70210328     0.19637119     0.03007287     Uiso  ? I
I 1.0 0.98134254     0.98700569     0.76427777     Uiso  ? I
I 1.0 0.03829149     0.94294494     0.2651311     Uiso  ? I
I 1.0 0.43736205     0.42258539     0.22888124     Uiso  ? I
I 1.0 0.52530413     0.51719125     0.72673021     Uiso  ? I
