
#======================================================================
# CRYSTAL DATA
#----------------------------------------------------------------------
data_VESTA_phase_1

_chemical_name_common                  ' struc4'
_cell_length_a                         8.6197900772
_cell_length_b                         8.8517599106
_cell_length_c                         12.5012798309
_cell_angle_alpha                      90.000000
_cell_angle_beta                       90.000000
_cell_angle_gamma                      90.000000
_cell_volume                           953.851554537
_space_group_name_H-M_alt              'P 1'
_space_group_IT_number                 1

loop_
_space_group_symop_operation_xyz
   'x, y, z'

loop_
   _atom_site_label
   _atom_site_occupancy
   _atom_site_fract_x
   _atom_site_fract_y
   _atom_site_fract_z
   _atom_site_adp_type
   _atom_site_U_iso_or_equiv
   _atom_site_type_symbol
Pb 1.0 0.02319256     0.03733699     0.01173702     Uiso  ? Pb
Pb 1.0 0.98107983     0.01119639     0.50478805     Uiso  ? Pb
Pb 1.0 0.47284238     0.52147073     0.47004203     Uiso  ? Pb
Pb 1.0 0.52775096     0.50911096     0.98526093     Uiso  ? Pb
Cs 1.0 0.01562714     0.44195167     0.24645105     Uiso  ? Cs
Cs 1.0 0.00844     0.54170877     0.7337281     Uiso  ? Cs
Cs 1.0 0.4778628     0.09779506     0.7716394     Uiso  ? Cs
Cs 1.0 0.47035475     0.93755624     0.27372498     Uiso  ? Cs
I 1.0 0.16508784     0.29322193     0.50140197     Uiso  ? I
I 1.0 0.78314789     0.69454169     0.4807406     Uiso  ? I
I 1.0 0.66016014     0.16406581     0.48707965     Uiso  ? I
I 1.0 0.30655088     0.80981262     0.53194759     Uiso  ? I
I 1.0 0.84049915     0.70274198     0.01674723     Uiso  ? I
I 1.0 0.21886621     0.3041646     0.99940748     Uiso  ? I
I 1.0 0.35891661     0.81332154     0.98549719     Uiso  ? I
I 1.0 0.7026031     0.19846734     0.03051799     Uiso  ? I
I 1.0 0.9817698     0.98772452     0.76382639     Uiso  ? I
I 1.0 0.0390538     0.94425972     0.26550733     Uiso  ? I
I 1.0 0.43847912     0.4212041     0.22961293     Uiso  ? I
I 1.0 0.52594586     0.51739054     0.72696043     Uiso  ? I
