
#======================================================================
# CRYSTAL DATA
#----------------------------------------------------------------------
data_VESTA_phase_1

_chemical_name_common                  ' struc4'
_cell_length_a                         8.6197900772
_cell_length_b                         8.8517599106
_cell_length_c                         12.5012798309
_cell_angle_alpha                      90.000000
_cell_angle_beta                       90.000000
_cell_angle_gamma                      90.000000
_cell_volume                           953.851554537
_space_group_name_H-M_alt              'P 1'
_space_group_IT_number                 1

loop_
_space_group_symop_operation_xyz
   'x, y, z'

loop_
   _atom_site_label
   _atom_site_occupancy
   _atom_site_fract_x
   _atom_site_fract_y
   _atom_site_fract_z
   _atom_site_adp_type
   _atom_site_U_iso_or_equiv
   _atom_site_type_symbol
Pb 1.0 0.02318252     0.03741109     0.01185247     Uiso  ? Pb
Pb 1.0 0.98098558     0.01153556     0.50450958     Uiso  ? Pb
Pb 1.0 0.47336524     0.52057793     0.47021929     Uiso  ? Pb
Pb 1.0 0.52682607     0.50887112     0.98500979     Uiso  ? Pb
Cs 1.0 0.01494308     0.44223349     0.24680371     Uiso  ? Cs
Cs 1.0 0.00915092     0.5415417     0.73311425     Uiso  ? Cs
Cs 1.0 0.47799051     0.09745303     0.77141604     Uiso  ? Cs
Cs 1.0 0.47061331     0.93773261     0.27386649     Uiso  ? Cs
I 1.0 0.16520552     0.29259234     0.50153241     Uiso  ? I
I 1.0 0.78340781     0.69456377     0.48103032     Uiso  ? I
I 1.0 0.65950411     0.16345062     0.48721772     Uiso  ? I
I 1.0 0.3064743     0.80992847     0.53229249     Uiso  ? I
I 1.0 0.84004592     0.70342287     0.01632769     Uiso  ? I
I 1.0 0.21898927     0.30411911     0.99931576     Uiso  ? I
I 1.0 0.35820141     0.81351266     0.98515495     Uiso  ? I
I 1.0 0.70288444     0.19949119     0.03074569     Uiso  ? I
I 1.0 0.98198211     0.98809778     0.76359591     Uiso  ? I
I 1.0 0.03942898     0.94493265     0.26566948     Uiso  ? I
I 1.0 0.43907938     0.42055592     0.23000954     Uiso  ? I
I 1.0 0.5262712     0.51747687     0.72710086     Uiso  ? I
