
#======================================================================
# CRYSTAL DATA
#----------------------------------------------------------------------
data_VESTA_phase_1

_chemical_name_common                  ' struc4'
_cell_length_a                         8.6197900772
_cell_length_b                         8.8517599106
_cell_length_c                         12.5012798309
_cell_angle_alpha                      90.000000
_cell_angle_beta                       90.000000
_cell_angle_gamma                      90.000000
_cell_volume                           953.851554537
_space_group_name_H-M_alt              'P 1'
_space_group_IT_number                 1

loop_
_space_group_symop_operation_xyz
   'x, y, z'

loop_
   _atom_site_label
   _atom_site_occupancy
   _atom_site_fract_x
   _atom_site_fract_y
   _atom_site_fract_z
   _atom_site_adp_type
   _atom_site_U_iso_or_equiv
   _atom_site_type_symbol
Pb 1.0 0.02314931     0.03743378     0.01196598     Uiso  ? Pb
Pb 1.0 0.9808759     0.01184956     0.50423746     Uiso  ? Pb
Pb 1.0 0.47390309     0.51965992     0.47040683     Uiso  ? Pb
Pb 1.0 0.52591684     0.50864958     0.98475618     Uiso  ? Pb
Cs 1.0 0.01422404     0.44253026     0.24715512     Uiso  ? Cs
Cs 1.0 0.00986239     0.54137852     0.73250556     Uiso  ? Cs
Cs 1.0 0.47811879     0.09709325     0.77118352     Uiso  ? Cs
Cs 1.0 0.47089247     0.93791481     0.27399283     Uiso  ? Cs
I 1.0 0.16535762     0.29200758     0.50167418     Uiso  ? I
I 1.0 0.78367599     0.6945714     0.48130926     Uiso  ? I
I 1.0 0.65884346     0.16286273     0.4873578     Uiso  ? I
I 1.0 0.30637587     0.81005485     0.53264522     Uiso  ? I
I 1.0 0.83957984     0.70407969     0.01590803     Uiso  ? I
I 1.0 0.21912017     0.30411489     0.99919238     Uiso  ? I
I 1.0 0.35745513     0.81372507     0.98481616     Uiso  ? I
I 1.0 0.7031876     0.20049826     0.03097662     Uiso  ? I
I 1.0 0.98219372     0.98848093     0.76336279     Uiso  ? I
I 1.0 0.03980045     0.94561593     0.26581323     Uiso  ? I
I 1.0 0.43970577     0.41993579     0.2304263     Uiso  ? I
I 1.0 0.52659972     0.51755402     0.72725832     Uiso  ? I
