
#======================================================================
# CRYSTAL DATA
#----------------------------------------------------------------------
data_VESTA_phase_1

_chemical_name_common                  ' struc4'
_cell_length_a                         8.6197900772
_cell_length_b                         8.8517599106
_cell_length_c                         12.5012798309
_cell_angle_alpha                      90.000000
_cell_angle_beta                       90.000000
_cell_angle_gamma                      90.000000
_cell_volume                           953.851554537
_space_group_name_H-M_alt              'P 1'
_space_group_IT_number                 1

loop_
_space_group_symop_operation_xyz
   'x, y, z'

loop_
   _atom_site_label
   _atom_site_occupancy
   _atom_site_fract_x
   _atom_site_fract_y
   _atom_site_fract_z
   _atom_site_adp_type
   _atom_site_U_iso_or_equiv
   _atom_site_type_symbol
Pb 1.0 0.02301237     0.03732421     0.01218574     Uiso  ? Pb
Pb 1.0 0.98060934     0.01239789     0.50371469     Uiso  ? Pb
Pb 1.0 0.47502249     0.51775225     0.47081366     Uiso  ? Pb
Pb 1.0 0.52414556     0.50826409     0.98424245     Uiso  ? Pb
Cs 1.0 0.01268424     0.44316883     0.24785299     Uiso  ? Cs
Cs 1.0 0.01128862     0.5410653     0.73130326     Uiso  ? Cs
Cs 1.0 0.47837754     0.09632055     0.77069218     Uiso  ? Cs
Cs 1.0 0.47151161     0.93829487     0.27419916     Uiso  ? Cs
I 1.0 0.16576967     0.29097925     0.50199103     Uiso  ? I
I 1.0 0.78423528     0.69454101     0.48183485     Uiso  ? I
I 1.0 0.65750744     0.16177126     0.48764528     Uiso  ? I
I 1.0 0.30611752     0.81033115     0.5333723     Uiso  ? I
I 1.0 0.83860693     0.70532216     0.01506799     Uiso  ? I
I 1.0 0.21940418     0.30423101     0.99885276     Uiso  ? I
I 1.0 0.35586893     0.81421326     0.9841493     Uiso  ? I
I 1.0 0.70386125     0.20245951     0.03144767     Uiso  ? I
I 1.0 0.98261476     0.98927869     0.76289006     Uiso  ? I
I 1.0 0.04053238     0.94701344     0.26604196     Uiso  ? I
I 1.0 0.44103259     0.41877839     0.23131857     Uiso  ? I
I 1.0 0.52726715     0.51768025     0.72762455     Uiso  ? I
