
#======================================================================
# CRYSTAL DATA
#----------------------------------------------------------------------
data_VESTA_phase_1

_chemical_name_common                  ' struc4'
_cell_length_a                         8.6197900772
_cell_length_b                         8.8517599106
_cell_length_c                         12.5012798309
_cell_angle_alpha                      90.000000
_cell_angle_beta                       90.000000
_cell_angle_gamma                      90.000000
_cell_volume                           953.851554537
_space_group_name_H-M_alt              'P 1'
_space_group_IT_number                 1

loop_
_space_group_symop_operation_xyz
   'x, y, z'

loop_
   _atom_site_label
   _atom_site_occupancy
   _atom_site_fract_x
   _atom_site_fract_y
   _atom_site_fract_z
   _atom_site_adp_type
   _atom_site_U_iso_or_equiv
   _atom_site_type_symbol
Pb 1.0 0.02125381     0.03431492     0.0129807     Uiso  ? Pb
Pb 1.0 0.97863453     0.01340942     0.50182637     Uiso  ? Pb
Pb 1.0 0.48069651     0.50818064     0.47320508     Uiso  ? Pb
Pb 1.0 0.51696853     0.50759116     0.98186964     Uiso  ? Pb
Cs 1.0 0.00424603     0.44678398     0.25085136     Uiso  ? Cs
Cs 1.0 0.01777991     0.53993181     0.72621392     Uiso  ? Cs
Cs 1.0 0.47960489     0.0919675     0.7681116     Uiso  ? Cs
Cs 1.0 0.47524987     0.94016293     0.27432387     Uiso  ? Cs
I 1.0 0.16954054     0.28887136     0.50393343     Uiso  ? I
I 1.0 0.78705919     0.69358614     0.48364462     Uiso  ? I
I 1.0 0.65125138     0.15836289     0.48908995     Uiso  ? I
I 1.0 0.30410347     0.81159985     0.53688021     Uiso  ? I
I 1.0 0.83353867     0.70981391     0.01129287     Uiso  ? I
I 1.0 0.2208715     0.30669138     0.99588562     Uiso  ? I
I 1.0 0.34720412     0.81737645     0.9813488     Uiso  ? I
I 1.0 0.70805945     0.21040343     0.03367567     Uiso  ? I
I 1.0 0.98445404     0.99344513     0.76071959     Uiso  ? I
I 1.0 0.04364929     0.95377068     0.26596633     Uiso  ? I
I 1.0 0.4480108     0.41491328     0.23619642     Uiso  ? I
I 1.0 0.53046391     0.51775672     0.73011926     Uiso  ? I
