
#======================================================================
# CRYSTAL DATA
#----------------------------------------------------------------------
data_VESTA_phase_1

_chemical_name_common                  ' struc4'
_cell_length_a                         8.6197900772
_cell_length_b                         8.8517599106
_cell_length_c                         12.5012798309
_cell_angle_alpha                      90.000000
_cell_angle_beta                       90.000000
_cell_angle_gamma                      90.000000
_cell_volume                           953.851554537
_space_group_name_H-M_alt              'P 1'
_space_group_IT_number                 1

loop_
_space_group_symop_operation_xyz
   'x, y, z'

loop_
   _atom_site_label
   _atom_site_occupancy
   _atom_site_fract_x
   _atom_site_fract_y
   _atom_site_fract_z
   _atom_site_adp_type
   _atom_site_U_iso_or_equiv
   _atom_site_type_symbol
Pb 1.0 0.02063132     0.03311704     0.01309614     Uiso  ? Pb
Pb 1.0 0.97804067     0.01329832     0.50153351     Uiso  ? Pb
Pb 1.0 0.48207262     0.5058819     0.47386731     Uiso  ? Pb
Pb 1.0 0.5155583     0.5076987     0.9813451     Uiso  ? Pb
Cs 1.0 0.00207614     0.44774379     0.25147032     Uiso  ? Cs
Cs 1.0 0.01923973     0.53975562     0.72517843     Uiso  ? Cs
Cs 1.0 0.47989843     0.09080609     0.76747343     Uiso  ? Cs
Cs 1.0 0.4762755     0.94058753     0.27416471     Uiso  ? Cs
I 1.0 0.17080219     0.28896648     0.50446849     Uiso  ? I
I 1.0 0.78774416     0.69318712     0.48391594     Uiso  ? I
I 1.0 0.64982121     0.15795986     0.48945192     Uiso  ? I
I 1.0 0.30349939     0.81181507     0.53768067     Uiso  ? I
I 1.0 0.83226801     0.71059287     0.0104609     Uiso  ? I
I 1.0 0.22117062     0.30760333     0.99493198     Uiso  ? I
I 1.0 0.34495912     0.81826887     0.98077839     Uiso  ? I
I 1.0 0.70924767     0.21197891     0.03418516     Uiso  ? I
I 1.0 0.98483819     0.99450592     0.76023975     Uiso  ? I
I 1.0 0.04430535     0.95536608     0.26568558     Uiso  ? I
I 1.0 0.44972923     0.41435223     0.23743248     Uiso  ? I
I 1.0 0.53122501     0.51766032     0.73085759     Uiso  ? I
