
#======================================================================
# CRYSTAL DATA
#----------------------------------------------------------------------
data_VESTA_phase_1

_chemical_name_common                  ' struc4'
_cell_length_a                         8.6197900772
_cell_length_b                         8.8517599106
_cell_length_c                         12.5012798309
_cell_angle_alpha                      90.000000
_cell_angle_beta                       90.000000
_cell_angle_gamma                      90.000000
_cell_volume                           953.851554537
_space_group_name_H-M_alt              'P 1'
_space_group_IT_number                 1

loop_
_space_group_symop_operation_xyz
   'x, y, z'

loop_
   _atom_site_label
   _atom_site_occupancy
   _atom_site_fract_x
   _atom_site_fract_y
   _atom_site_fract_z
   _atom_site_adp_type
   _atom_site_U_iso_or_equiv
   _atom_site_type_symbol
Pb 1.0 0.01471691     0.02073258     0.01295866     Uiso  ? Pb
Pb 1.0 0.97327666     0.0096724     0.5010406     Uiso  ? Pb
Pb 1.0 0.49204939     0.48917089     0.47977292     Uiso  ? Pb
Pb 1.0 0.50781798     0.51114073     0.97826021     Uiso  ? Pb
Cs 1.0 0.98512039     0.45561418     0.25501049     Uiso  ? Cs
Cs 1.0 0.0294446     0.53955095     0.71940634     Uiso  ? Cs
Cs 1.0 0.48209325     0.08102695     0.76283102     Uiso  ? Cs
Cs 1.0 0.48488915     0.94316247     0.27112204     Uiso  ? Cs
I 1.0 0.18245804     0.29383319     0.5088592     Uiso  ? I
I 1.0 0.79313116     0.68897124     0.48442361     Uiso  ? I
I 1.0 0.64036591     0.15863469     0.49247328     Uiso  ? I
I 1.0 0.29816281     0.81185842     0.54284294     Uiso  ? I
I 1.0 0.82250563     0.71444132     0.00496356     Uiso  ? I
I 1.0 0.22114682     0.31555125     0.9860679     Uiso  ? I
I 1.0 0.3272714     0.82540569     0.97754271     Uiso  ? I
I 1.0 0.71930365     0.22131375     0.03763806     Uiso  ? I
I 1.0 0.98689851     0.00313566     0.7569815     Uiso  ? I
I 1.0 0.04849343     0.96713095     0.26134528     Uiso  ? I
I 1.0 0.46225014     0.4133959     0.24637117     Uiso  ? I
I 1.0 0.53715679     0.51590699     0.73738898     Uiso  ? I
