
#======================================================================
# CRYSTAL DATA
#----------------------------------------------------------------------
data_VESTA_phase_1

_chemical_name_common                  ' struc4'
_cell_length_a                         8.6197900772
_cell_length_b                         8.8517599106
_cell_length_c                         12.5012798309
_cell_angle_alpha                      90.000000
_cell_angle_beta                       90.000000
_cell_angle_gamma                      90.000000
_cell_volume                           953.851554537
_space_group_name_H-M_alt              'P 1'
_space_group_IT_number                 1

loop_
_space_group_symop_operation_xyz
   'x, y, z'

loop_
   _atom_site_label
   _atom_site_occupancy
   _atom_site_fract_x
   _atom_site_fract_y
   _atom_site_fract_z
   _atom_site_adp_type
   _atom_site_U_iso_or_equiv
   _atom_site_type_symbol
Pb 1.0 0.0137393     0.01860773     0.0127795     Uiso  ? Pb
Pb 1.0 0.97265269     0.00885727     0.50119124     Uiso  ? Pb
Pb 1.0 0.49341447     0.48685616     0.48077061     Uiso  ? Pb
Pb 1.0 0.50703674     0.51196573     0.97798212     Uiso  ? Pb
Cs 1.0 0.98260892     0.4568257     0.25537533     Uiso  ? Cs
Cs 1.0 0.03084716     0.53968956     0.71885806     Uiso  ? Cs
Cs 1.0 0.48241001     0.07946581     0.76220656     Uiso  ? Cs
Cs 1.0 0.48624559     0.94343111     0.27043341     Uiso  ? Cs
I 1.0 0.18425222     0.29485828     0.50951838     Uiso  ? I
I 1.0 0.79398714     0.68827441     0.48430746     Uiso  ? I
I 1.0 0.63925092     0.15911879     0.49296406     Uiso  ? I
I 1.0 0.29729207     0.81163183     0.54344359     Uiso  ? I
I 1.0 0.82108796     0.71481484     0.00426539     Uiso  ? I
I 1.0 0.22068653     0.31667904     0.98459633     Uiso  ? I
I 1.0 0.32467287     0.82639966     0.97720808     Uiso  ? I
I 1.0 0.72083457     0.22244029     0.03807645     Uiso  ? I
I 1.0 0.98705141     0.00449771     0.75652301     Uiso  ? I
I 1.0 0.04902641     0.96884026     0.26049658     Uiso  ? I
I 1.0 0.4639827     0.41366874     0.24752922     Uiso  ? I
I 1.0 0.53809023     0.51552736     0.73840854     Uiso  ? I
