
#======================================================================
# CRYSTAL DATA
#----------------------------------------------------------------------
data_VESTA_phase_1

_chemical_name_common                  ' struc4'
_cell_length_a                         8.6197900772
_cell_length_b                         8.8517599106
_cell_length_c                         12.5012798309
_cell_angle_alpha                      90.000000
_cell_angle_beta                       90.000000
_cell_angle_gamma                      90.000000
_cell_volume                           953.851554537
_space_group_name_H-M_alt              'P 1'
_space_group_IT_number                 1

loop_
_space_group_symop_operation_xyz
   'x, y, z'

loop_
   _atom_site_label
   _atom_site_occupancy
   _atom_site_fract_x
   _atom_site_fract_y
   _atom_site_fract_z
   _atom_site_adp_type
   _atom_site_U_iso_or_equiv
   _atom_site_type_symbol
Pb 1.0 0.01274632     0.01645528     0.01255747     Uiso  ? Pb
Pb 1.0 0.97207861     0.00799687     0.5013908     Uiso  ? Pb
Pb 1.0 0.4947361     0.48460711     0.48179651     Uiso  ? Pb
Pb 1.0 0.50633456     0.51285     0.97776547     Uiso  ? Pb
Cs 1.0 0.98011813     0.45803577     0.25569875     Uiso  ? Cs
Cs 1.0 0.03221811     0.5398732     0.71839594     Uiso  ? Cs
Cs 1.0 0.48272219     0.07788747     0.76161034     Uiso  ? Cs
Cs 1.0 0.48761045     0.94366838     0.26969255     Uiso  ? Cs
I 1.0 0.18600069     0.2958936     0.51016956     Uiso  ? I
I 1.0 0.79486376     0.68758787     0.48415054     Uiso  ? I
I 1.0 0.63823959     0.15964969     0.49346237     Uiso  ? I
I 1.0 0.29640709     0.81135282     0.54399334     Uiso  ? I
I 1.0 0.81969042     0.71515382     0.00359791     Uiso  ? I
I 1.0 0.22009375     0.31776029     0.98310039     Uiso  ? I
I 1.0 0.32212402     0.8273433     0.9769065     Uiso  ? I
I 1.0 0.72234316     0.22352602     0.0384913     Uiso  ? I
I 1.0 0.98715649     0.00587692     0.75606274     Uiso  ? I
I 1.0 0.04954221     0.97053821     0.2596304     Uiso  ? I
I 1.0 0.46567345     0.41403681     0.24861778     Uiso  ? I
I 1.0 0.53904408     0.51512421     0.73941514     Uiso  ? I
