
#======================================================================
# CRYSTAL DATA
#----------------------------------------------------------------------
data_VESTA_phase_1

_chemical_name_common                  ' struc4'
_cell_length_a                         8.6197900772
_cell_length_b                         8.8517599106
_cell_length_c                         12.5012798309
_cell_angle_alpha                      90.000000
_cell_angle_beta                       90.000000
_cell_angle_gamma                      90.000000
_cell_volume                           953.851554537
_space_group_name_H-M_alt              'P 1'
_space_group_IT_number                 1

loop_
_space_group_symop_operation_xyz
   'x, y, z'

loop_
   _atom_site_label
   _atom_site_occupancy
   _atom_site_fract_x
   _atom_site_fract_y
   _atom_site_fract_z
   _atom_site_adp_type
   _atom_site_U_iso_or_equiv
   _atom_site_type_symbol
Pb 1.0 0.00970306     0.01004756     0.01164129     Uiso  ? Pb
Pb 1.0 0.97074636     0.0052188     0.50224298     Uiso  ? Pb
Pb 1.0 0.49836235     0.47842546     0.48499331     Uiso  ? Pb
Pb 1.0 0.50464779     0.51574344     0.97754497     Uiso  ? Pb
Cs 1.0 0.97289331     0.4615802     0.25640398     Uiso  ? Cs
Cs 1.0 0.03608899     0.54069448     0.71756236     Uiso  ? Cs
Cs 1.0 0.48361062     0.07311165     0.76005125     Uiso  ? Cs
Cs 1.0 0.49168957     0.94419223     0.2672064     Uiso  ? Cs
I 1.0 0.19074494     0.29885063     0.51202271     Uiso  ? I
I 1.0 0.79760252     0.68569762     0.48346905     Uiso  ? I
I 1.0 0.63596679     0.16128276     0.49496968     Uiso  ? I
I 1.0 0.29370254     0.81024842     0.54530228     Uiso  ? I
I 1.0 0.81568332     0.71596531     0.0018038     Uiso  ? I
I 1.0 0.21756099     0.32064772     0.97855207     Uiso  ? I
I 1.0 0.31501396     0.8297362     0.97618445     Uiso  ? I
I 1.0 0.72659599     0.22657961     0.03957246     Uiso  ? I
I 1.0 0.98715322     0.01007027     0.75466081     Uiso  ? I
I 1.0 0.05098924     0.97551667     0.25706261     Uiso  ? I
I 1.0 0.470431     0.41568598     0.25137606     Uiso  ? I
I 1.0 0.54202173     0.51380995     0.74223777     Uiso  ? I
