
#======================================================================
# CRYSTAL DATA
#----------------------------------------------------------------------
data_VESTA_phase_1

_chemical_name_common                  ' struc4'
_cell_length_a                         8.6197900772
_cell_length_b                         8.8517599106
_cell_length_c                         12.5012798309
_cell_angle_alpha                      90.000000
_cell_angle_beta                       90.000000
_cell_angle_gamma                      90.000000
_cell_volume                           953.851554537
_space_group_name_H-M_alt              'P 1'
_space_group_IT_number                 1

loop_
_space_group_symop_operation_xyz
   'x, y, z'

loop_
   _atom_site_label
   _atom_site_occupancy
   _atom_site_fract_x
   _atom_site_fract_y
   _atom_site_fract_z
   _atom_site_adp_type
   _atom_site_U_iso_or_equiv
   _atom_site_type_symbol
Pb 1.0 0.00867012     0.0079958     0.01125757     Uiso  ? Pb
Pb 1.0 0.97045527     0.00424663     0.50259659     Uiso  ? Pb
Pb 1.0 0.49943792     0.47660505     0.48608163     Uiso  ? Pb
Pb 1.0 0.5041991     0.51674792     0.97763114     Uiso  ? Pb
Cs 1.0 0.97059989     0.46270942     0.25654878     Uiso  ? Cs
Cs 1.0 0.03728992     0.54105629     0.71747565     Uiso  ? Cs
Cs 1.0 0.48388405     0.07152061     0.75962444     Uiso  ? Cs
Cs 1.0 0.49302741     0.94430728     0.2663044     Uiso  ? Cs
I 1.0 0.19210047     0.29973023     0.51259348     Uiso  ? I
I 1.0 0.7985448     0.68515501     0.48318425     Uiso  ? I
I 1.0 0.63550248     0.16175689     0.49546528     Uiso  ? I
I 1.0 0.29279546     0.80980822     0.54561793     Uiso  ? I
I 1.0 0.81442262     0.71616704     0.00127997     Uiso  ? I
I 1.0 0.21648659     0.32147875     0.97703702     Uiso  ? I
I 1.0 0.31289688     0.83034817     0.97599743     Uiso  ? I
I 1.0 0.72788449     0.22754699     0.03987349     Uiso  ? I
I 1.0 0.98703718     0.01147503     0.75418214     Uiso  ? I
I 1.0 0.05143876     0.9771245     0.2562583     Uiso  ? I
I 1.0 0.47189745     0.41640896     0.25210713     Uiso  ? I
I 1.0 0.54305404     0.51334503     0.74307966     Uiso  ? I
