
#======================================================================
# CRYSTAL DATA
#----------------------------------------------------------------------
data_VESTA_phase_1

_chemical_name_common                  ' struc4'
_cell_length_a                         8.6197900772
_cell_length_b                         8.8517599106
_cell_length_c                         12.5012798309
_cell_angle_alpha                      90.000000
_cell_angle_beta                       90.000000
_cell_angle_gamma                      90.000000
_cell_volume                           953.851554537
_space_group_name_H-M_alt              'P 1'
_space_group_IT_number                 1

loop_
_space_group_symop_operation_xyz
   'x, y, z'

loop_
   _atom_site_label
   _atom_site_occupancy
   _atom_site_fract_x
   _atom_site_fract_y
   _atom_site_fract_z
   _atom_site_adp_type
   _atom_site_U_iso_or_equiv
   _atom_site_type_symbol
Pb 1.0 0.00814985     0.00699567     0.01105215     Uiso  ? Pb
Pb 1.0 0.97034134     0.00375444     0.50278385     Uiso  ? Pb
Pb 1.0 0.49994843     0.47574721     0.48662747     Uiso  ? Pb
Pb 1.0 0.5039908     0.51725101     0.97770621     Uiso  ? Pb
Cs 1.0 0.96947914     0.4632611     0.25660351     Uiso  ? Cs
Cs 1.0 0.03787228     0.54125306     0.7174685     Uiso  ? Cs
Cs 1.0 0.48401556     0.07072809     0.75943059     Uiso  ? Cs
Cs 1.0 0.49369091     0.94435455     0.2658412     Uiso  ? Cs
I 1.0 0.19272768     0.30014255     0.51286848     Uiso  ? I
I 1.0 0.79901994     0.6849042     0.48303349     Uiso  ? I
I 1.0 0.63533075     0.16196642     0.49571018     Uiso  ? I
I 1.0 0.29234272     0.8095775     0.54575259     Uiso  ? I
I 1.0 0.81380693     0.71625455     0.00103225     Uiso  ? I
I 1.0 0.21591151     0.32186954     0.97628255     Uiso  ? I
I 1.0 0.31189632     0.83061363     0.97591254     Uiso  ? I
I 1.0 0.72849905     0.22802394     0.04001232     Uiso  ? I
I 1.0 0.98695676     0.01217726     0.75394012     Uiso  ? I
I 1.0 0.05165766     0.97791734     0.25587182     Uiso  ? I
I 1.0 0.47260745     0.41680159     0.25243597     Uiso  ? I
I 1.0 0.54357773     0.51310871     0.7434779     Uiso  ? I
