
#======================================================================
# CRYSTAL DATA
#----------------------------------------------------------------------
data_VESTA_phase_1

_chemical_name_common                  ' struc4'
_cell_length_a                         8.6197900772
_cell_length_b                         8.8517599106
_cell_length_c                         12.5012798309
_cell_angle_alpha                      90.000000
_cell_angle_beta                       90.000000
_cell_angle_gamma                      90.000000
_cell_volume                           953.851554537
_space_group_name_H-M_alt              'P 1'
_space_group_IT_number                 1

loop_
_space_group_symop_operation_xyz
   'x, y, z'

loop_
   _atom_site_label
   _atom_site_occupancy
   _atom_site_fract_x
   _atom_site_fract_y
   _atom_site_fract_z
   _atom_site_adp_type
   _atom_site_U_iso_or_equiv
   _atom_site_type_symbol
Pb 1.0 0.00762684     0.00601523     0.01083811     Uiso  ? Pb
Pb 1.0 0.97024913     0.00325875     0.50297733     Uiso  ? Pb
Pb 1.0 0.50044034     0.47492617     0.48717379     Uiso  ? Pb
Pb 1.0 0.50379152     0.5177528     0.97780302     Uiso  ? Pb
Cs 1.0 0.96837658     0.46380366     0.25664603     Uiso  ? Cs
Cs 1.0 0.03844213     0.54146018     0.71748545     Uiso  ? Cs
Cs 1.0 0.4841434     0.06993825     0.75925025     Uiso  ? Cs
Cs 1.0 0.49435037     0.94439536     0.2653703     Uiso  ? Cs
I 1.0 0.19331918     0.300535     0.51313612     Uiso  ? I
I 1.0 0.7994973     0.6846681     0.48287781     Uiso  ? I
I 1.0 0.63520072     0.16215365     0.49595272     Uiso  ? I
I 1.0 0.29189101     0.80934026     0.54587173     Uiso  ? I
I 1.0 0.81320111     0.71633299     0.000794     Uiso  ? I
I 1.0 0.21531292     0.32224426     0.97553083     Uiso  ? I
I 1.0 0.31093724     0.8308506     0.97583292     Uiso  ? I
I 1.0 0.72909249     0.22849686     0.04014325     Uiso  ? I
I 1.0 0.98686139     0.01287902     0.75369633     Uiso  ? I
I 1.0 0.05187276     0.97870299     0.25549702     Uiso  ? I
I 1.0 0.4733017     0.41721429     0.25274034     Uiso  ? I
I 1.0 0.54410675     0.51286991     0.74386036     Uiso  ? I
