
#======================================================================
# CRYSTAL DATA
#----------------------------------------------------------------------
data_VESTA_phase_1

_chemical_name_common                  ' struc4'
_cell_length_a                         8.6197900772
_cell_length_b                         8.8517599106
_cell_length_c                         12.5012798309
_cell_angle_alpha                      90.000000
_cell_angle_beta                       90.000000
_cell_angle_gamma                      90.000000
_cell_volume                           953.851554537
_space_group_name_H-M_alt              'P 1'
_space_group_IT_number                 1

loop_
_space_group_symop_operation_xyz
   'x, y, z'

loop_
   _atom_site_label
   _atom_site_occupancy
   _atom_site_fract_x
   _atom_site_fract_y
   _atom_site_fract_z
   _atom_site_adp_type
   _atom_site_U_iso_or_equiv
   _atom_site_type_symbol
Pb 1.0 0.00496287     0.00146612     0.00964962     Uiso  ? Pb
Pb 1.0 0.97012513     0.00073916     0.50401801     Uiso  ? Pb
Pb 1.0 0.50261359     0.47141528     0.48989795     Uiso  ? Pb
Pb 1.0 0.50288391     0.52019474     0.9786182     Uiso  ? Pb
Cs 1.0 0.96315286     0.46636234     0.25667051     Uiso  ? Cs
Cs 1.0 0.04109777     0.54264567     0.71792807     Uiso  ? Cs
Cs 1.0 0.48472409     0.06603842     0.75855929     Uiso  ? Cs
Cs 1.0 0.49758447     0.94451236     0.26290613     Uiso  ? Cs
I 1.0 0.19570726     0.30216595     0.51435975     Uiso  ? I
I 1.0 0.80190629     0.68372102     0.48204543     Uiso  ? I
I 1.0 0.63519683     0.16266309     0.49711879     Uiso  ? I
I 1.0 0.28966381     0.80807224     0.54623595     Uiso  ? I
I 1.0 0.810311     0.71657582     0.99974307     Uiso  ? I
I 1.0 0.21202083     0.32389055     0.97182396     Uiso  ? I
I 1.0 0.30682207     0.83158166     0.97550128     Uiso  ? I
I 1.0 0.73172226     0.23081918     0.0406758     Uiso  ? I
I 1.0 0.98615345     0.01637881     0.75245596     Uiso  ? I
I 1.0 0.05288956     0.98253018     0.25381927     Uiso  ? I
I 1.0 0.47654226     0.41956916     0.25390741     Uiso  ? I
I 1.0 0.54683892     0.51164733     0.74552434     Uiso  ? I
