
#======================================================================
# CRYSTAL DATA
#----------------------------------------------------------------------
data_VESTA_phase_1

_chemical_name_common                  ' struc4'
_cell_length_a                         8.6197900772
_cell_length_b                         8.8517599106
_cell_length_c                         12.5012798309
_cell_angle_alpha                      90.000000
_cell_angle_beta                       90.000000
_cell_angle_gamma                      90.000000
_cell_volume                           953.851554537
_space_group_name_H-M_alt              'P 1'
_space_group_IT_number                 1

loop_
_space_group_symop_operation_xyz
   'x, y, z'

loop_
   _atom_site_label
   _atom_site_occupancy
   _atom_site_fract_x
   _atom_site_fract_y
   _atom_site_fract_z
   _atom_site_adp_type
   _atom_site_U_iso_or_equiv
   _atom_site_type_symbol
Pb 1.0 0.00131538     0.0026356     0.00184507     Uiso  ? Pb
Pb 1.0 0.99911852     0.99979436     0.49809304     Uiso  ? Pb
Pb 1.0 0.5020388     0.49976404     0.49990727     Uiso  ? Pb
Pb 1.0 0.49892264     0.50438421     0.99812811     Uiso  ? Pb
Cs 1.0 0.98518562     0.44618838     0.25093917     Uiso  ? Cs
Cs 1.0 0.01602364     0.55973212     0.75029556     Uiso  ? Cs
Cs 1.0 0.48733678     0.05032124     0.74918421     Uiso  ? Cs
Cs 1.0 0.51791507     0.94712191     0.250212     Uiso  ? Cs
I 1.0 0.20039821     0.301919     0.52791521     Uiso  ? I
I 1.0 0.80343794     0.69833351     0.4706163     Uiso  ? I
I 1.0 0.70014786     0.19964918     0.46964743     Uiso  ? I
I 1.0 0.30259445     0.79938832     0.53272287     Uiso  ? I
I 1.0 0.80568553     0.69920277     0.02997798     Uiso  ? I
I 1.0 0.19209564     0.29544729     0.96696387     Uiso  ? I
I 1.0 0.30147569     0.79398569     0.97207409     Uiso  ? I
I 1.0 0.69809645     0.1987651     0.03078633     Uiso  ? I
I 1.0 0.93159942     0.0024476     0.74943336     Uiso  ? I
I 1.0 0.06073473     0.00099817     0.25066547     Uiso  ? I
I 1.0 0.43386898     0.50155689     0.24995825     Uiso  ? I
I 1.0 0.56082052     0.4940434     0.75188678     Uiso  ? I
