
#======================================================================
# CRYSTAL DATA
#----------------------------------------------------------------------
data_VESTA_phase_1

_chemical_name_common                  ' struc4'
_cell_length_a                         8.6197900772
_cell_length_b                         8.8517599106
_cell_length_c                         12.5012798309
_cell_angle_alpha                      90.000000
_cell_angle_beta                       90.000000
_cell_angle_gamma                      90.000000
_cell_volume                           953.851554537
_space_group_name_H-M_alt              'P 1'
_space_group_IT_number                 1

loop_
_space_group_symop_operation_xyz
   'x, y, z'

loop_
   _atom_site_label
   _atom_site_occupancy
   _atom_site_fract_x
   _atom_site_fract_y
   _atom_site_fract_z
   _atom_site_adp_type
   _atom_site_U_iso_or_equiv
   _atom_site_type_symbol
Pb 1.0 0.00386984     0.99983808     0.0091248     Uiso  ? Pb
Pb 1.0 0.97023714     0.99971718     0.50445762     Uiso  ? Pb
Pb 1.0 0.50334719     0.47030455     0.49097822     Uiso  ? Pb
Pb 1.0 0.50253714     0.52111719     0.97909904     Uiso  ? Pb
Cs 1.0 0.96120299     0.46730683     0.25659041     Uiso  ? Cs
Cs 1.0 0.04206765     0.54318718     0.71826864     Uiso  ? Cs
Cs 1.0 0.48492803     0.06450488     0.75838331     Uiso  ? Cs
Cs 1.0 0.49884843     0.94452409     0.26187258     Uiso  ? Cs
I 1.0 0.19638458     0.30265192     0.51479302     Uiso  ? I
I 1.0 0.8028736     0.68345458     0.4816975     Uiso  ? I
I 1.0 0.63550316     0.1626262     0.49755787     Uiso  ? I
I 1.0 0.28879605     0.80753489     0.54627489     Uiso  ? I
I 1.0 0.80921582     0.71659529     0.99938694     Uiso  ? I
I 1.0 0.21059061     0.32445389     0.97036751     Uiso  ? I
I 1.0 0.30551538     0.83165176     0.97539305     Uiso  ? I
I 1.0 0.73261039     0.23173424     0.04083083     Uiso  ? I
I 1.0 0.98576162     0.01777271     0.75195703     Uiso  ? I
I 1.0 0.05327212     0.98401858     0.2532466     Uiso  ? I
I 1.0 0.4777341     0.42064614     0.25421639     Uiso  ? I
I 1.0 0.54797629     0.5111465     0.74607357     Uiso  ? I
