
#======================================================================
# CRYSTAL DATA
#----------------------------------------------------------------------
data_VESTA_phase_1

_chemical_name_common                  ' struc4'
_cell_length_a                         8.6197900772
_cell_length_b                         8.8517599106
_cell_length_c                         12.5012798309
_cell_angle_alpha                      90.000000
_cell_angle_beta                       90.000000
_cell_angle_gamma                      90.000000
_cell_volume                           953.851554537
_space_group_name_H-M_alt              'P 1'
_space_group_IT_number                 1

loop_
_space_group_symop_operation_xyz
   'x, y, z'

loop_
   _atom_site_label
   _atom_site_occupancy
   _atom_site_fract_x
   _atom_site_fract_y
   _atom_site_fract_z
   _atom_site_adp_type
   _atom_site_U_iso_or_equiv
   _atom_site_type_symbol
Pb 1.0 0.98266367     0.0209815     0.00248666     Uiso  ? Pb
Pb 1.0 0.0132537     0.0008525     0.50778246     Uiso  ? Pb
Pb 1.0 0.5123887     0.49991333     0.49450014     Uiso  ? Pb
Pb 1.0 0.51356366     0.50703885     0.99936306     Uiso  ? Pb
Cs 1.0 0.99918887     0.4486043     0.25768865     Uiso  ? Cs
Cs 1.0 0.00958076     0.63130419     0.75028819     Uiso  ? Cs
Cs 1.0 0.50244231     0.99350505     0.75567102     Uiso  ? Cs
Cs 1.0 0.5275879     0.95763182     0.25697958     Uiso  ? Cs
I 1.0 0.19562791     0.30374176     0.50215944     Uiso  ? I
I 1.0 0.84794102     0.6856962     0.48185983     Uiso  ? I
I 1.0 0.70148759     0.20212814     0.45982814     Uiso  ? I
I 1.0 0.31133962     0.78885294     0.55903944     Uiso  ? I
I 1.0 0.82291333     0.6578767     0.02415135     Uiso  ? I
I 1.0 0.1892534     0.32585521     0.92323455     Uiso  ? I
I 1.0 0.25620242     0.794899     0.99531609     Uiso  ? I
I 1.0 0.67223285     0.18484797     0.04250063     Uiso  ? I
I 1.0 0.91158963     0.05026137     0.74564207     Uiso  ? I
I 1.0 0.05279376     0.98947746     0.24914123     Uiso  ? I
I 1.0 0.41525527     0.51247611     0.24959685     Uiso  ? I
I 1.0 0.54702279     0.42437481     0.73918133     Uiso  ? I
