
#======================================================================
# CRYSTAL DATA
#----------------------------------------------------------------------
data_VESTA_phase_1

_chemical_name_common                  ' struc4'
_cell_length_a                         8.6197900772
_cell_length_b                         8.8517599106
_cell_length_c                         12.5012798309
_cell_angle_alpha                      90.000000
_cell_angle_beta                       90.000000
_cell_angle_gamma                      90.000000
_cell_volume                           953.851554537
_space_group_name_H-M_alt              'P 1'
_space_group_IT_number                 1

loop_
_space_group_symop_operation_xyz
   'x, y, z'

loop_
   _atom_site_label
   _atom_site_occupancy
   _atom_site_fract_x
   _atom_site_fract_y
   _atom_site_fract_z
   _atom_site_adp_type
   _atom_site_U_iso_or_equiv
   _atom_site_type_symbol
Pb 1.0 0.98003086     0.02273177     0.00025511     Uiso  ? Pb
Pb 1.0 0.01627933     0.00183753     0.51081033     Uiso  ? Pb
Pb 1.0 0.51231435     0.49987218     0.49404455     Uiso  ? Pb
Pb 1.0 0.51461033     0.50326892     0.00066406     Uiso  ? Pb
Cs 1.0 0.99908007     0.44756183     0.25758002     Uiso  ? Cs
Cs 1.0 0.0092357     0.63707815     0.75025297     Uiso  ? Cs
Cs 1.0 0.49982398     0.98937793     0.75856241     Uiso  ? Cs
Cs 1.0 0.52689501     0.95649492     0.25823342     Uiso  ? Cs
I 1.0 0.19308001     0.30205452     0.500926     Uiso  ? I
I 1.0 0.85225712     0.68528299     0.48235199     Uiso  ? I
I 1.0 0.69995083     0.20292303     0.45798328     Uiso  ? I
I 1.0 0.3119289     0.7870493     0.56020535     Uiso  ? I
I 1.0 0.82411822     0.65535296     0.02379839     Uiso  ? I
I 1.0 0.19175561     0.33079686     0.91977693     Uiso  ? I
I 1.0 0.25362041     0.79762202     0.99621384     Uiso  ? I
I 1.0 0.66551868     0.18628556     0.0438978     Uiso  ? I
I 1.0 0.91542518     0.05412221     0.74583389     Uiso  ? I
I 1.0 0.05353764     0.98837793     0.24873774     Uiso  ? I
I 1.0 0.41673611     0.51482797     0.24847923     Uiso  ? I
I 1.0 0.54744494     0.41810651     0.73657557     Uiso  ? I
