
#======================================================================
# CRYSTAL DATA
#----------------------------------------------------------------------
data_VESTA_phase_1

_chemical_name_common                  ' struc4'
_cell_length_a                         8.6197900772
_cell_length_b                         8.8517599106
_cell_length_c                         12.5012798309
_cell_angle_alpha                      90.000000
_cell_angle_beta                       90.000000
_cell_angle_gamma                      90.000000
_cell_volume                           953.851554537
_space_group_name_H-M_alt              'P 1'
_space_group_IT_number                 1

loop_
_space_group_symop_operation_xyz
   'x, y, z'

loop_
   _atom_site_label
   _atom_site_occupancy
   _atom_site_fract_x
   _atom_site_fract_y
   _atom_site_fract_z
   _atom_site_adp_type
   _atom_site_U_iso_or_equiv
   _atom_site_type_symbol
Pb 1.0 0.97825586     0.02417846     0.99853632     Uiso  ? Pb
Pb 1.0 0.01851019     0.00263355     0.5129662     Uiso  ? Pb
Pb 1.0 0.51230846     0.49975839     0.49376828     Uiso  ? Pb
Pb 1.0 0.51503362     0.50031678     0.00156118     Uiso  ? Pb
Cs 1.0 0.99886418     0.44666931     0.25741485     Uiso  ? Cs
Cs 1.0 0.00901287     0.6411027     0.75029987     Uiso  ? Cs
Cs 1.0 0.49780034     0.98651736     0.76097235     Uiso  ? Cs
Cs 1.0 0.52618309     0.95539282     0.25924514     Uiso  ? Cs
I 1.0 0.19141506     0.30100047     0.50011992     Uiso  ? I
I 1.0 0.85505589     0.68485479     0.48263009     Uiso  ? I
I 1.0 0.69895726     0.20337877     0.45658254     Uiso  ? I
I 1.0 0.3122337     0.78576074     0.56087677     Uiso  ? I
I 1.0 0.82515856     0.65389231     0.02354837     Uiso  ? I
I 1.0 0.19342874     0.33409681     0.91742729     Uiso  ? I
I 1.0 0.25219904     0.79957008     0.9967348     Uiso  ? I
I 1.0 0.6603057     0.18752264     0.0448919     Uiso  ? I
I 1.0 0.91840534     0.05699901     0.74607504     Uiso  ? I
I 1.0 0.05407546     0.98762903     0.24847779     Uiso  ? I
I 1.0 0.41807016     0.51668196     0.24748519     Uiso  ? I
I 1.0 0.5479672     0.41362926     0.73474351     Uiso  ? I
