
#======================================================================
# CRYSTAL DATA
#----------------------------------------------------------------------
data_VESTA_phase_1

_chemical_name_common                  ' struc4'
_cell_length_a                         8.6197900772
_cell_length_b                         8.8517599106
_cell_length_c                         12.5012798309
_cell_angle_alpha                      90.000000
_cell_angle_beta                       90.000000
_cell_angle_gamma                      90.000000
_cell_volume                           953.851554537
_space_group_name_H-M_alt              'P 1'
_space_group_IT_number                 1

loop_
_space_group_symop_operation_xyz
   'x, y, z'

loop_
   _atom_site_label
   _atom_site_occupancy
   _atom_site_fract_x
   _atom_site_fract_y
   _atom_site_fract_z
   _atom_site_adp_type
   _atom_site_U_iso_or_equiv
   _atom_site_type_symbol
Pb 1.0 0.97343266     0.03055505     0.99230593     Uiso  ? Pb
Pb 1.0 0.02624211     0.00553638     0.51948306     Uiso  ? Pb
Pb 1.0 0.51308107     0.49841494     0.4933071     Uiso  ? Pb
Pb 1.0 0.51364593     0.48923886     0.00399601     Uiso  ? Pb
Cs 1.0 0.9970745     0.44244207     0.25606837     Uiso  ? Cs
Cs 1.0 0.00837871     0.65344106     0.75127944     Uiso  ? Cs
Cs 1.0 0.49030007     0.97769858     0.77199237     Uiso  ? Cs
Cs 1.0 0.5219255     0.94909878     0.26357154     Uiso  ? Cs
I 1.0 0.18800568     0.29977581     0.4979853     Uiso  ? I
I 1.0 0.86154202     0.68220788     0.48286421     Uiso  ? I
I 1.0 0.6968877     0.2038304     0.45120152     Uiso  ? I
I 1.0 0.31235976     0.78185994     0.56181604     Uiso  ? I
I 1.0 0.82983834     0.6520267     0.02263393     Uiso  ? I
I 1.0 0.19757694     0.3428461     0.91064517     Uiso  ? I
I 1.0 0.25052098     0.8066935     0.99732216     Uiso  ? I
I 1.0 0.64047933     0.19162695     0.04831228     Uiso  ? I
I 1.0 0.92937547     0.06795057     0.74795862     Uiso  ? I
I 1.0 0.05560677     0.98564128     0.24785684     Uiso  ? I
I 1.0 0.42444596     0.52434224     0.24280354     Uiso  ? I
I 1.0 0.55174005     0.39867693     0.72881619     Uiso  ? I
