
#======================================================================
# CRYSTAL DATA
#----------------------------------------------------------------------
data_VESTA_phase_1

_chemical_name_common                  ' struc4'
_cell_length_a                         8.6197900772
_cell_length_b                         8.8517599106
_cell_length_c                         12.5012798309
_cell_angle_alpha                      90.000000
_cell_angle_beta                       90.000000
_cell_angle_gamma                      90.000000
_cell_volume                           953.851554537
_space_group_name_H-M_alt              'P 1'
_space_group_IT_number                 1

loop_
_space_group_symop_operation_xyz
   'x, y, z'

loop_
   _atom_site_label
   _atom_site_occupancy
   _atom_site_fract_x
   _atom_site_fract_y
   _atom_site_fract_z
   _atom_site_adp_type
   _atom_site_U_iso_or_equiv
   _atom_site_type_symbol
Pb 1.0 0.97301412     0.03163924     0.99148068     Uiso  ? Pb
Pb 1.0 0.02727607     0.00589088     0.52014805     Uiso  ? Pb
Pb 1.0 0.51336918     0.49803952     0.49332577     Uiso  ? Pb
Pb 1.0 0.51297638     0.48775272     0.00416668     Uiso  ? Pb
Cs 1.0 0.9966672     0.44166654     0.25574284     Uiso  ? Cs
Cs 1.0 0.00830033     0.65486041     0.75156804     Uiso  ? Cs
Cs 1.0 0.48922151     0.97664516     0.77396676     Uiso  ? Cs
Cs 1.0 0.52102913     0.94779341     0.26430196     Uiso  ? Cs
I 1.0 0.18801736     0.30012656     0.49778882     Uiso  ? I
I 1.0 0.86185979     0.68164831     0.48277058     Uiso  ? I
I 1.0 0.69687299     0.20369732     0.45036273     Uiso  ? I
I 1.0 0.31225369     0.78147021     0.5617321     Uiso  ? I
I 1.0 0.83058719     0.6523029     0.02248516     Uiso  ? I
I 1.0 0.19782428     0.34358957     0.90994137     Uiso  ? I
I 1.0 0.25074589     0.80782544     0.99718681     Uiso  ? I
I 1.0 0.63761075     0.19183209     0.04881906     Uiso  ? I
I 1.0 0.93089546     0.0696844     0.74839569     Uiso  ? I
I 1.0 0.05573116     0.98549341     0.24782479     Uiso  ? I
I 1.0 0.42556194     0.52560665     0.24200931     Uiso  ? I
I 1.0 0.55261334     0.39668789     0.72805795     Uiso  ? I
