
#======================================================================
# CRYSTAL DATA
#----------------------------------------------------------------------
data_VESTA_phase_1

_chemical_name_common                  ' struc4'
_cell_length_a                         8.6197900772
_cell_length_b                         8.8517599106
_cell_length_c                         12.5012798309
_cell_angle_alpha                      90.000000
_cell_angle_beta                       90.000000
_cell_angle_gamma                      90.000000
_cell_volume                           953.851554537
_space_group_name_H-M_alt              'P 1'
_space_group_IT_number                 1

loop_
_space_group_symop_operation_xyz
   'x, y, z'

loop_
   _atom_site_label
   _atom_site_occupancy
   _atom_site_fract_x
   _atom_site_fract_y
   _atom_site_fract_z
   _atom_site_adp_type
   _atom_site_U_iso_or_equiv
   _atom_site_type_symbol
Pb 1.0 0.97259231     0.0332525     0.99039882     Uiso  ? Pb
Pb 1.0 0.02867838     0.00632917     0.52089998     Uiso  ? Pb
Pb 1.0 0.51389918     0.49739196     0.49339808     Uiso  ? Pb
Pb 1.0 0.5117649     0.48582829     0.00427276     Uiso  ? Pb
Cs 1.0 0.99601172     0.44047373     0.25519958     Uiso  ? Cs
Cs 1.0 0.00819024     0.65665218     0.75206128     Uiso  ? Cs
Cs 1.0 0.48771164     0.97527003     0.77696591     Uiso  ? Cs
Cs 1.0 0.51959627     0.9457175     0.26539634     Uiso  ? Cs
I 1.0 0.18834414     0.30095848     0.49757027     Uiso  ? I
I 1.0 0.86194502     0.68076823     0.48256742     Uiso  ? I
I 1.0 0.69703428     0.20339263     0.44913545     Uiso  ? I
I 1.0 0.31205715     0.78104549     0.56150264     Uiso  ? I
I 1.0 0.8316366     0.65300271     0.02225877     Uiso  ? I
I 1.0 0.19795482     0.34434115     0.90910844     Uiso  ? I
I 1.0 0.25128571     0.80952001     0.99686964     Uiso  ? I
I 1.0 0.63363649     0.19171282     0.0495692     Uiso  ? I
I 1.0 0.9329634     0.07224307     0.74908648     Uiso  ? I
I 1.0 0.05584262     0.98537499     0.24782126     Uiso  ? I
I 1.0 0.42722091     0.52747815     0.24085682     Uiso  ? I
I 1.0 0.55404798     0.39396356     0.72704087     Uiso  ? I
